
---------- Begin Simulation Statistics ----------
final_tick                               17928131693562                       # Number of ticks from beginning of simulation (restored from checkpoints and never reset)
host_inst_rate                                 171342                       # Simulator instruction rate (inst/s)
host_mem_usage                               17114616                       # Number of bytes of host memory used
host_op_rate                                   308757                       # Simulator op (including micro ops) rate (op/s)
host_seconds                                  5836.24                       # Real time elapsed on the host
host_tick_rate                                5675931                       # Simulator tick rate (ticks/s)
sim_freq                                 1000000000000                       # Frequency of simulated ticks
sim_insts                                   999991900                       # Number of instructions simulated
sim_ops                                    1801983386                       # Number of ops (including micro ops) simulated
sim_seconds                                  0.033126                       # Number of seconds simulated
sim_ticks                                 33126113394                       # Number of ticks simulated
system.cpu0.Branches                                4                       # Number of branches fetched
system.cpu0.committedInsts                         13                       # Number of instructions committed
system.cpu0.committedOps                           29                       # Number of ops (including micro ops) committed
system.cpu0.idle_fraction                           0                       # Percentage of idle cycles
system.cpu0.l2bus.snoop_filter.hit_multi_requests        37908                       # Number of requests hitting in the snoop filter with multiple (>1) holders of the requested data.
system.cpu0.l2bus.snoop_filter.hit_multi_snoops            0                       # Number of snoops hitting in the snoop filter with multiple (>1) holders of the requested data.
system.cpu0.l2bus.snoop_filter.hit_single_requests      1721445                       # Number of requests hitting in the snoop filter with a single holder of the requested data.
system.cpu0.l2bus.snoop_filter.hit_single_snoops            1                       # Number of snoops hitting in the snoop filter with a single holder of the requested data.
system.cpu0.l2bus.snoop_filter.tot_requests      3443834                       # Total number of requests made to the snoop filter.
system.cpu0.l2bus.snoop_filter.tot_snoops            1                       # Total number of snoops made to the snoop filter.
system.cpu0.mmucache.mmubus.snoop_filter.hit_multi_requests            0                       # Number of requests hitting in the snoop filter with multiple (>1) holders of the requested data.
system.cpu0.mmucache.mmubus.snoop_filter.hit_multi_snoops            0                       # Number of snoops hitting in the snoop filter with multiple (>1) holders of the requested data.
system.cpu0.mmucache.mmubus.snoop_filter.hit_single_requests            0                       # Number of requests hitting in the snoop filter with a single holder of the requested data.
system.cpu0.mmucache.mmubus.snoop_filter.hit_single_snoops            0                       # Number of snoops hitting in the snoop filter with a single holder of the requested data.
system.cpu0.mmucache.mmubus.snoop_filter.tot_requests            0                       # Total number of requests made to the snoop filter.
system.cpu0.mmucache.mmubus.snoop_filter.tot_snoops            0                       # Total number of snoops made to the snoop filter.
system.cpu0.not_idle_fraction                       1                       # Percentage of non-idle cycles
system.cpu0.numCycles                              32                       # number of cpu cycles simulated
system.cpu0.numWorkItemsCompleted                   0                       # number of work items this cpu completed
system.cpu0.numWorkItemsStarted                     0                       # number of work items this cpu started
system.cpu0.num_busy_cycles                        32                       # Number of busy cycles
system.cpu0.num_cc_register_reads                  18                       # number of times the CC registers were read
system.cpu0.num_cc_register_writes                  8                       # number of times the CC registers were written
system.cpu0.num_conditional_control_insts            3                       # number of instructions that are conditional controls
system.cpu0.num_fp_alu_accesses                     0                       # Number of float alu accesses
system.cpu0.num_fp_insts                            0                       # number of float instructions
system.cpu0.num_fp_register_reads                   0                       # number of times the floating registers were read
system.cpu0.num_fp_register_writes                  0                       # number of times the floating registers were written
system.cpu0.num_func_calls                          1                       # number of times a function call or return occured
system.cpu0.num_idle_cycles                         0                       # Number of idle cycles
system.cpu0.num_int_alu_accesses                   29                       # Number of integer alu accesses
system.cpu0.num_int_insts                          29                       # number of integer instructions
system.cpu0.num_int_register_reads                 56                       # number of times the integer registers were read
system.cpu0.num_int_register_writes                25                       # number of times the integer registers were written
system.cpu0.num_load_insts                          6                       # Number of load instructions
system.cpu0.num_mem_refs                            6                       # number of memory refs
system.cpu0.num_store_insts                         0                       # Number of store instructions
system.cpu0.num_vec_alu_accesses                    0                       # Number of vector alu accesses
system.cpu0.num_vec_insts                           0                       # number of vector instructions
system.cpu0.num_vec_register_reads                  0                       # number of times the vector registers were read
system.cpu0.num_vec_register_writes                 0                       # number of times the vector registers were written
system.cpu0.op_class::No_OpClass                    0      0.00%      0.00% # Class of executed instruction
system.cpu0.op_class::IntAlu                       23     79.31%     79.31% # Class of executed instruction
system.cpu0.op_class::IntMult                       0      0.00%     79.31% # Class of executed instruction
system.cpu0.op_class::IntDiv                        0      0.00%     79.31% # Class of executed instruction
system.cpu0.op_class::FloatAdd                      0      0.00%     79.31% # Class of executed instruction
system.cpu0.op_class::FloatCmp                      0      0.00%     79.31% # Class of executed instruction
system.cpu0.op_class::FloatCvt                      0      0.00%     79.31% # Class of executed instruction
system.cpu0.op_class::FloatMult                     0      0.00%     79.31% # Class of executed instruction
system.cpu0.op_class::FloatMultAcc                  0      0.00%     79.31% # Class of executed instruction
system.cpu0.op_class::FloatDiv                      0      0.00%     79.31% # Class of executed instruction
system.cpu0.op_class::FloatMisc                     0      0.00%     79.31% # Class of executed instruction
system.cpu0.op_class::FloatSqrt                     0      0.00%     79.31% # Class of executed instruction
system.cpu0.op_class::SimdAdd                       0      0.00%     79.31% # Class of executed instruction
system.cpu0.op_class::SimdAddAcc                    0      0.00%     79.31% # Class of executed instruction
system.cpu0.op_class::SimdAlu                       0      0.00%     79.31% # Class of executed instruction
system.cpu0.op_class::SimdCmp                       0      0.00%     79.31% # Class of executed instruction
system.cpu0.op_class::SimdCvt                       0      0.00%     79.31% # Class of executed instruction
system.cpu0.op_class::SimdMisc                      0      0.00%     79.31% # Class of executed instruction
system.cpu0.op_class::SimdMult                      0      0.00%     79.31% # Class of executed instruction
system.cpu0.op_class::SimdMultAcc                   0      0.00%     79.31% # Class of executed instruction
system.cpu0.op_class::SimdShift                     0      0.00%     79.31% # Class of executed instruction
system.cpu0.op_class::SimdShiftAcc                  0      0.00%     79.31% # Class of executed instruction
system.cpu0.op_class::SimdDiv                       0      0.00%     79.31% # Class of executed instruction
system.cpu0.op_class::SimdSqrt                      0      0.00%     79.31% # Class of executed instruction
system.cpu0.op_class::SimdFloatAdd                  0      0.00%     79.31% # Class of executed instruction
system.cpu0.op_class::SimdFloatAlu                  0      0.00%     79.31% # Class of executed instruction
system.cpu0.op_class::SimdFloatCmp                  0      0.00%     79.31% # Class of executed instruction
system.cpu0.op_class::SimdFloatCvt                  0      0.00%     79.31% # Class of executed instruction
system.cpu0.op_class::SimdFloatDiv                  0      0.00%     79.31% # Class of executed instruction
system.cpu0.op_class::SimdFloatMisc                 0      0.00%     79.31% # Class of executed instruction
system.cpu0.op_class::SimdFloatMult                 0      0.00%     79.31% # Class of executed instruction
system.cpu0.op_class::SimdFloatMultAcc              0      0.00%     79.31% # Class of executed instruction
system.cpu0.op_class::SimdFloatSqrt                 0      0.00%     79.31% # Class of executed instruction
system.cpu0.op_class::SimdReduceAdd                 0      0.00%     79.31% # Class of executed instruction
system.cpu0.op_class::SimdReduceAlu                 0      0.00%     79.31% # Class of executed instruction
system.cpu0.op_class::SimdReduceCmp                 0      0.00%     79.31% # Class of executed instruction
system.cpu0.op_class::SimdFloatReduceAdd            0      0.00%     79.31% # Class of executed instruction
system.cpu0.op_class::SimdFloatReduceCmp            0      0.00%     79.31% # Class of executed instruction
system.cpu0.op_class::SimdAes                       0      0.00%     79.31% # Class of executed instruction
system.cpu0.op_class::SimdAesMix                    0      0.00%     79.31% # Class of executed instruction
system.cpu0.op_class::SimdSha1Hash                  0      0.00%     79.31% # Class of executed instruction
system.cpu0.op_class::SimdSha1Hash2                 0      0.00%     79.31% # Class of executed instruction
system.cpu0.op_class::SimdSha256Hash                0      0.00%     79.31% # Class of executed instruction
system.cpu0.op_class::SimdSha256Hash2               0      0.00%     79.31% # Class of executed instruction
system.cpu0.op_class::SimdShaSigma2                 0      0.00%     79.31% # Class of executed instruction
system.cpu0.op_class::SimdShaSigma3                 0      0.00%     79.31% # Class of executed instruction
system.cpu0.op_class::SimdPredAlu                   0      0.00%     79.31% # Class of executed instruction
system.cpu0.op_class::MemRead                       6     20.69%    100.00% # Class of executed instruction
system.cpu0.op_class::MemWrite                      0      0.00%    100.00% # Class of executed instruction
system.cpu0.op_class::FloatMemRead                  0      0.00%    100.00% # Class of executed instruction
system.cpu0.op_class::FloatMemWrite                 0      0.00%    100.00% # Class of executed instruction
system.cpu0.op_class::IprAccess                     0      0.00%    100.00% # Class of executed instruction
system.cpu0.op_class::InstPrefetch                  0      0.00%    100.00% # Class of executed instruction
system.cpu0.op_class::total                        29                       # Class of executed instruction
system.cpu0.workload.numSyscalls                    0                       # Number of system calls
system.cpu1.Branches                                4                       # Number of branches fetched
system.cpu1.committedInsts                         13                       # Number of instructions committed
system.cpu1.committedOps                           29                       # Number of ops (including micro ops) committed
system.cpu1.idle_fraction                           0                       # Percentage of idle cycles
system.cpu1.l2bus.snoop_filter.hit_multi_requests        37900                       # Number of requests hitting in the snoop filter with multiple (>1) holders of the requested data.
system.cpu1.l2bus.snoop_filter.hit_multi_snoops            0                       # Number of snoops hitting in the snoop filter with multiple (>1) holders of the requested data.
system.cpu1.l2bus.snoop_filter.hit_single_requests      1721425                       # Number of requests hitting in the snoop filter with a single holder of the requested data.
system.cpu1.l2bus.snoop_filter.hit_single_snoops            1                       # Number of snoops hitting in the snoop filter with a single holder of the requested data.
system.cpu1.l2bus.snoop_filter.tot_requests      3443793                       # Total number of requests made to the snoop filter.
system.cpu1.l2bus.snoop_filter.tot_snoops            1                       # Total number of snoops made to the snoop filter.
system.cpu1.mmucache.mmubus.snoop_filter.hit_multi_requests            0                       # Number of requests hitting in the snoop filter with multiple (>1) holders of the requested data.
system.cpu1.mmucache.mmubus.snoop_filter.hit_multi_snoops            0                       # Number of snoops hitting in the snoop filter with multiple (>1) holders of the requested data.
system.cpu1.mmucache.mmubus.snoop_filter.hit_single_requests            0                       # Number of requests hitting in the snoop filter with a single holder of the requested data.
system.cpu1.mmucache.mmubus.snoop_filter.hit_single_snoops            0                       # Number of snoops hitting in the snoop filter with a single holder of the requested data.
system.cpu1.mmucache.mmubus.snoop_filter.tot_requests            0                       # Total number of requests made to the snoop filter.
system.cpu1.mmucache.mmubus.snoop_filter.tot_snoops            0                       # Total number of snoops made to the snoop filter.
system.cpu1.not_idle_fraction                       1                       # Percentage of non-idle cycles
system.cpu1.numCycles                              32                       # number of cpu cycles simulated
system.cpu1.numWorkItemsCompleted                   0                       # number of work items this cpu completed
system.cpu1.numWorkItemsStarted                     0                       # number of work items this cpu started
system.cpu1.num_busy_cycles                        32                       # Number of busy cycles
system.cpu1.num_cc_register_reads                  18                       # number of times the CC registers were read
system.cpu1.num_cc_register_writes                  8                       # number of times the CC registers were written
system.cpu1.num_conditional_control_insts            3                       # number of instructions that are conditional controls
system.cpu1.num_fp_alu_accesses                     0                       # Number of float alu accesses
system.cpu1.num_fp_insts                            0                       # number of float instructions
system.cpu1.num_fp_register_reads                   0                       # number of times the floating registers were read
system.cpu1.num_fp_register_writes                  0                       # number of times the floating registers were written
system.cpu1.num_func_calls                          1                       # number of times a function call or return occured
system.cpu1.num_idle_cycles                         0                       # Number of idle cycles
system.cpu1.num_int_alu_accesses                   29                       # Number of integer alu accesses
system.cpu1.num_int_insts                          29                       # number of integer instructions
system.cpu1.num_int_register_reads                 56                       # number of times the integer registers were read
system.cpu1.num_int_register_writes                25                       # number of times the integer registers were written
system.cpu1.num_load_insts                          6                       # Number of load instructions
system.cpu1.num_mem_refs                            6                       # number of memory refs
system.cpu1.num_store_insts                         0                       # Number of store instructions
system.cpu1.num_vec_alu_accesses                    0                       # Number of vector alu accesses
system.cpu1.num_vec_insts                           0                       # number of vector instructions
system.cpu1.num_vec_register_reads                  0                       # number of times the vector registers were read
system.cpu1.num_vec_register_writes                 0                       # number of times the vector registers were written
system.cpu1.op_class::No_OpClass                    0      0.00%      0.00% # Class of executed instruction
system.cpu1.op_class::IntAlu                       23     79.31%     79.31% # Class of executed instruction
system.cpu1.op_class::IntMult                       0      0.00%     79.31% # Class of executed instruction
system.cpu1.op_class::IntDiv                        0      0.00%     79.31% # Class of executed instruction
system.cpu1.op_class::FloatAdd                      0      0.00%     79.31% # Class of executed instruction
system.cpu1.op_class::FloatCmp                      0      0.00%     79.31% # Class of executed instruction
system.cpu1.op_class::FloatCvt                      0      0.00%     79.31% # Class of executed instruction
system.cpu1.op_class::FloatMult                     0      0.00%     79.31% # Class of executed instruction
system.cpu1.op_class::FloatMultAcc                  0      0.00%     79.31% # Class of executed instruction
system.cpu1.op_class::FloatDiv                      0      0.00%     79.31% # Class of executed instruction
system.cpu1.op_class::FloatMisc                     0      0.00%     79.31% # Class of executed instruction
system.cpu1.op_class::FloatSqrt                     0      0.00%     79.31% # Class of executed instruction
system.cpu1.op_class::SimdAdd                       0      0.00%     79.31% # Class of executed instruction
system.cpu1.op_class::SimdAddAcc                    0      0.00%     79.31% # Class of executed instruction
system.cpu1.op_class::SimdAlu                       0      0.00%     79.31% # Class of executed instruction
system.cpu1.op_class::SimdCmp                       0      0.00%     79.31% # Class of executed instruction
system.cpu1.op_class::SimdCvt                       0      0.00%     79.31% # Class of executed instruction
system.cpu1.op_class::SimdMisc                      0      0.00%     79.31% # Class of executed instruction
system.cpu1.op_class::SimdMult                      0      0.00%     79.31% # Class of executed instruction
system.cpu1.op_class::SimdMultAcc                   0      0.00%     79.31% # Class of executed instruction
system.cpu1.op_class::SimdShift                     0      0.00%     79.31% # Class of executed instruction
system.cpu1.op_class::SimdShiftAcc                  0      0.00%     79.31% # Class of executed instruction
system.cpu1.op_class::SimdDiv                       0      0.00%     79.31% # Class of executed instruction
system.cpu1.op_class::SimdSqrt                      0      0.00%     79.31% # Class of executed instruction
system.cpu1.op_class::SimdFloatAdd                  0      0.00%     79.31% # Class of executed instruction
system.cpu1.op_class::SimdFloatAlu                  0      0.00%     79.31% # Class of executed instruction
system.cpu1.op_class::SimdFloatCmp                  0      0.00%     79.31% # Class of executed instruction
system.cpu1.op_class::SimdFloatCvt                  0      0.00%     79.31% # Class of executed instruction
system.cpu1.op_class::SimdFloatDiv                  0      0.00%     79.31% # Class of executed instruction
system.cpu1.op_class::SimdFloatMisc                 0      0.00%     79.31% # Class of executed instruction
system.cpu1.op_class::SimdFloatMult                 0      0.00%     79.31% # Class of executed instruction
system.cpu1.op_class::SimdFloatMultAcc              0      0.00%     79.31% # Class of executed instruction
system.cpu1.op_class::SimdFloatSqrt                 0      0.00%     79.31% # Class of executed instruction
system.cpu1.op_class::SimdReduceAdd                 0      0.00%     79.31% # Class of executed instruction
system.cpu1.op_class::SimdReduceAlu                 0      0.00%     79.31% # Class of executed instruction
system.cpu1.op_class::SimdReduceCmp                 0      0.00%     79.31% # Class of executed instruction
system.cpu1.op_class::SimdFloatReduceAdd            0      0.00%     79.31% # Class of executed instruction
system.cpu1.op_class::SimdFloatReduceCmp            0      0.00%     79.31% # Class of executed instruction
system.cpu1.op_class::SimdAes                       0      0.00%     79.31% # Class of executed instruction
system.cpu1.op_class::SimdAesMix                    0      0.00%     79.31% # Class of executed instruction
system.cpu1.op_class::SimdSha1Hash                  0      0.00%     79.31% # Class of executed instruction
system.cpu1.op_class::SimdSha1Hash2                 0      0.00%     79.31% # Class of executed instruction
system.cpu1.op_class::SimdSha256Hash                0      0.00%     79.31% # Class of executed instruction
system.cpu1.op_class::SimdSha256Hash2               0      0.00%     79.31% # Class of executed instruction
system.cpu1.op_class::SimdShaSigma2                 0      0.00%     79.31% # Class of executed instruction
system.cpu1.op_class::SimdShaSigma3                 0      0.00%     79.31% # Class of executed instruction
system.cpu1.op_class::SimdPredAlu                   0      0.00%     79.31% # Class of executed instruction
system.cpu1.op_class::MemRead                       6     20.69%    100.00% # Class of executed instruction
system.cpu1.op_class::MemWrite                      0      0.00%    100.00% # Class of executed instruction
system.cpu1.op_class::FloatMemRead                  0      0.00%    100.00% # Class of executed instruction
system.cpu1.op_class::FloatMemWrite                 0      0.00%    100.00% # Class of executed instruction
system.cpu1.op_class::IprAccess                     0      0.00%    100.00% # Class of executed instruction
system.cpu1.op_class::InstPrefetch                  0      0.00%    100.00% # Class of executed instruction
system.cpu1.op_class::total                        29                       # Class of executed instruction
system.cpu1.workload.numSyscalls                    0                       # Number of system calls
system.cpu2.Branches                                4                       # Number of branches fetched
system.cpu2.committedInsts                         13                       # Number of instructions committed
system.cpu2.committedOps                           29                       # Number of ops (including micro ops) committed
system.cpu2.idle_fraction                           0                       # Percentage of idle cycles
system.cpu2.l2bus.snoop_filter.hit_multi_requests        37905                       # Number of requests hitting in the snoop filter with multiple (>1) holders of the requested data.
system.cpu2.l2bus.snoop_filter.hit_multi_snoops            0                       # Number of snoops hitting in the snoop filter with multiple (>1) holders of the requested data.
system.cpu2.l2bus.snoop_filter.hit_single_requests      1721450                       # Number of requests hitting in the snoop filter with a single holder of the requested data.
system.cpu2.l2bus.snoop_filter.hit_single_snoops            1                       # Number of snoops hitting in the snoop filter with a single holder of the requested data.
system.cpu2.l2bus.snoop_filter.tot_requests      3443845                       # Total number of requests made to the snoop filter.
system.cpu2.l2bus.snoop_filter.tot_snoops            1                       # Total number of snoops made to the snoop filter.
system.cpu2.mmucache.mmubus.snoop_filter.hit_multi_requests            0                       # Number of requests hitting in the snoop filter with multiple (>1) holders of the requested data.
system.cpu2.mmucache.mmubus.snoop_filter.hit_multi_snoops            0                       # Number of snoops hitting in the snoop filter with multiple (>1) holders of the requested data.
system.cpu2.mmucache.mmubus.snoop_filter.hit_single_requests            0                       # Number of requests hitting in the snoop filter with a single holder of the requested data.
system.cpu2.mmucache.mmubus.snoop_filter.hit_single_snoops            0                       # Number of snoops hitting in the snoop filter with a single holder of the requested data.
system.cpu2.mmucache.mmubus.snoop_filter.tot_requests            0                       # Total number of requests made to the snoop filter.
system.cpu2.mmucache.mmubus.snoop_filter.tot_snoops            0                       # Total number of snoops made to the snoop filter.
system.cpu2.not_idle_fraction                       1                       # Percentage of non-idle cycles
system.cpu2.numCycles                              32                       # number of cpu cycles simulated
system.cpu2.numWorkItemsCompleted                   0                       # number of work items this cpu completed
system.cpu2.numWorkItemsStarted                     0                       # number of work items this cpu started
system.cpu2.num_busy_cycles                        32                       # Number of busy cycles
system.cpu2.num_cc_register_reads                  18                       # number of times the CC registers were read
system.cpu2.num_cc_register_writes                  8                       # number of times the CC registers were written
system.cpu2.num_conditional_control_insts            3                       # number of instructions that are conditional controls
system.cpu2.num_fp_alu_accesses                     0                       # Number of float alu accesses
system.cpu2.num_fp_insts                            0                       # number of float instructions
system.cpu2.num_fp_register_reads                   0                       # number of times the floating registers were read
system.cpu2.num_fp_register_writes                  0                       # number of times the floating registers were written
system.cpu2.num_func_calls                          1                       # number of times a function call or return occured
system.cpu2.num_idle_cycles                         0                       # Number of idle cycles
system.cpu2.num_int_alu_accesses                   29                       # Number of integer alu accesses
system.cpu2.num_int_insts                          29                       # number of integer instructions
system.cpu2.num_int_register_reads                 56                       # number of times the integer registers were read
system.cpu2.num_int_register_writes                25                       # number of times the integer registers were written
system.cpu2.num_load_insts                          6                       # Number of load instructions
system.cpu2.num_mem_refs                            6                       # number of memory refs
system.cpu2.num_store_insts                         0                       # Number of store instructions
system.cpu2.num_vec_alu_accesses                    0                       # Number of vector alu accesses
system.cpu2.num_vec_insts                           0                       # number of vector instructions
system.cpu2.num_vec_register_reads                  0                       # number of times the vector registers were read
system.cpu2.num_vec_register_writes                 0                       # number of times the vector registers were written
system.cpu2.op_class::No_OpClass                    0      0.00%      0.00% # Class of executed instruction
system.cpu2.op_class::IntAlu                       23     79.31%     79.31% # Class of executed instruction
system.cpu2.op_class::IntMult                       0      0.00%     79.31% # Class of executed instruction
system.cpu2.op_class::IntDiv                        0      0.00%     79.31% # Class of executed instruction
system.cpu2.op_class::FloatAdd                      0      0.00%     79.31% # Class of executed instruction
system.cpu2.op_class::FloatCmp                      0      0.00%     79.31% # Class of executed instruction
system.cpu2.op_class::FloatCvt                      0      0.00%     79.31% # Class of executed instruction
system.cpu2.op_class::FloatMult                     0      0.00%     79.31% # Class of executed instruction
system.cpu2.op_class::FloatMultAcc                  0      0.00%     79.31% # Class of executed instruction
system.cpu2.op_class::FloatDiv                      0      0.00%     79.31% # Class of executed instruction
system.cpu2.op_class::FloatMisc                     0      0.00%     79.31% # Class of executed instruction
system.cpu2.op_class::FloatSqrt                     0      0.00%     79.31% # Class of executed instruction
system.cpu2.op_class::SimdAdd                       0      0.00%     79.31% # Class of executed instruction
system.cpu2.op_class::SimdAddAcc                    0      0.00%     79.31% # Class of executed instruction
system.cpu2.op_class::SimdAlu                       0      0.00%     79.31% # Class of executed instruction
system.cpu2.op_class::SimdCmp                       0      0.00%     79.31% # Class of executed instruction
system.cpu2.op_class::SimdCvt                       0      0.00%     79.31% # Class of executed instruction
system.cpu2.op_class::SimdMisc                      0      0.00%     79.31% # Class of executed instruction
system.cpu2.op_class::SimdMult                      0      0.00%     79.31% # Class of executed instruction
system.cpu2.op_class::SimdMultAcc                   0      0.00%     79.31% # Class of executed instruction
system.cpu2.op_class::SimdShift                     0      0.00%     79.31% # Class of executed instruction
system.cpu2.op_class::SimdShiftAcc                  0      0.00%     79.31% # Class of executed instruction
system.cpu2.op_class::SimdDiv                       0      0.00%     79.31% # Class of executed instruction
system.cpu2.op_class::SimdSqrt                      0      0.00%     79.31% # Class of executed instruction
system.cpu2.op_class::SimdFloatAdd                  0      0.00%     79.31% # Class of executed instruction
system.cpu2.op_class::SimdFloatAlu                  0      0.00%     79.31% # Class of executed instruction
system.cpu2.op_class::SimdFloatCmp                  0      0.00%     79.31% # Class of executed instruction
system.cpu2.op_class::SimdFloatCvt                  0      0.00%     79.31% # Class of executed instruction
system.cpu2.op_class::SimdFloatDiv                  0      0.00%     79.31% # Class of executed instruction
system.cpu2.op_class::SimdFloatMisc                 0      0.00%     79.31% # Class of executed instruction
system.cpu2.op_class::SimdFloatMult                 0      0.00%     79.31% # Class of executed instruction
system.cpu2.op_class::SimdFloatMultAcc              0      0.00%     79.31% # Class of executed instruction
system.cpu2.op_class::SimdFloatSqrt                 0      0.00%     79.31% # Class of executed instruction
system.cpu2.op_class::SimdReduceAdd                 0      0.00%     79.31% # Class of executed instruction
system.cpu2.op_class::SimdReduceAlu                 0      0.00%     79.31% # Class of executed instruction
system.cpu2.op_class::SimdReduceCmp                 0      0.00%     79.31% # Class of executed instruction
system.cpu2.op_class::SimdFloatReduceAdd            0      0.00%     79.31% # Class of executed instruction
system.cpu2.op_class::SimdFloatReduceCmp            0      0.00%     79.31% # Class of executed instruction
system.cpu2.op_class::SimdAes                       0      0.00%     79.31% # Class of executed instruction
system.cpu2.op_class::SimdAesMix                    0      0.00%     79.31% # Class of executed instruction
system.cpu2.op_class::SimdSha1Hash                  0      0.00%     79.31% # Class of executed instruction
system.cpu2.op_class::SimdSha1Hash2                 0      0.00%     79.31% # Class of executed instruction
system.cpu2.op_class::SimdSha256Hash                0      0.00%     79.31% # Class of executed instruction
system.cpu2.op_class::SimdSha256Hash2               0      0.00%     79.31% # Class of executed instruction
system.cpu2.op_class::SimdShaSigma2                 0      0.00%     79.31% # Class of executed instruction
system.cpu2.op_class::SimdShaSigma3                 0      0.00%     79.31% # Class of executed instruction
system.cpu2.op_class::SimdPredAlu                   0      0.00%     79.31% # Class of executed instruction
system.cpu2.op_class::MemRead                       6     20.69%    100.00% # Class of executed instruction
system.cpu2.op_class::MemWrite                      0      0.00%    100.00% # Class of executed instruction
system.cpu2.op_class::FloatMemRead                  0      0.00%    100.00% # Class of executed instruction
system.cpu2.op_class::FloatMemWrite                 0      0.00%    100.00% # Class of executed instruction
system.cpu2.op_class::IprAccess                     0      0.00%    100.00% # Class of executed instruction
system.cpu2.op_class::InstPrefetch                  0      0.00%    100.00% # Class of executed instruction
system.cpu2.op_class::total                        29                       # Class of executed instruction
system.cpu2.workload.numSyscalls                    0                       # Number of system calls
system.cpu3.Branches                                4                       # Number of branches fetched
system.cpu3.committedInsts                         13                       # Number of instructions committed
system.cpu3.committedOps                           29                       # Number of ops (including micro ops) committed
system.cpu3.idle_fraction                           0                       # Percentage of idle cycles
system.cpu3.l2bus.snoop_filter.hit_multi_requests        37897                       # Number of requests hitting in the snoop filter with multiple (>1) holders of the requested data.
system.cpu3.l2bus.snoop_filter.hit_multi_snoops            0                       # Number of snoops hitting in the snoop filter with multiple (>1) holders of the requested data.
system.cpu3.l2bus.snoop_filter.hit_single_requests      1721389                       # Number of requests hitting in the snoop filter with a single holder of the requested data.
system.cpu3.l2bus.snoop_filter.hit_single_snoops            1                       # Number of snoops hitting in the snoop filter with a single holder of the requested data.
system.cpu3.l2bus.snoop_filter.tot_requests      3443721                       # Total number of requests made to the snoop filter.
system.cpu3.l2bus.snoop_filter.tot_snoops            1                       # Total number of snoops made to the snoop filter.
system.cpu3.mmucache.mmubus.snoop_filter.hit_multi_requests            0                       # Number of requests hitting in the snoop filter with multiple (>1) holders of the requested data.
system.cpu3.mmucache.mmubus.snoop_filter.hit_multi_snoops            0                       # Number of snoops hitting in the snoop filter with multiple (>1) holders of the requested data.
system.cpu3.mmucache.mmubus.snoop_filter.hit_single_requests            0                       # Number of requests hitting in the snoop filter with a single holder of the requested data.
system.cpu3.mmucache.mmubus.snoop_filter.hit_single_snoops            0                       # Number of snoops hitting in the snoop filter with a single holder of the requested data.
system.cpu3.mmucache.mmubus.snoop_filter.tot_requests            0                       # Total number of requests made to the snoop filter.
system.cpu3.mmucache.mmubus.snoop_filter.tot_snoops            0                       # Total number of snoops made to the snoop filter.
system.cpu3.not_idle_fraction                       1                       # Percentage of non-idle cycles
system.cpu3.numCycles                              32                       # number of cpu cycles simulated
system.cpu3.numWorkItemsCompleted                   0                       # number of work items this cpu completed
system.cpu3.numWorkItemsStarted                     0                       # number of work items this cpu started
system.cpu3.num_busy_cycles                        32                       # Number of busy cycles
system.cpu3.num_cc_register_reads                  18                       # number of times the CC registers were read
system.cpu3.num_cc_register_writes                  8                       # number of times the CC registers were written
system.cpu3.num_conditional_control_insts            3                       # number of instructions that are conditional controls
system.cpu3.num_fp_alu_accesses                     0                       # Number of float alu accesses
system.cpu3.num_fp_insts                            0                       # number of float instructions
system.cpu3.num_fp_register_reads                   0                       # number of times the floating registers were read
system.cpu3.num_fp_register_writes                  0                       # number of times the floating registers were written
system.cpu3.num_func_calls                          1                       # number of times a function call or return occured
system.cpu3.num_idle_cycles                         0                       # Number of idle cycles
system.cpu3.num_int_alu_accesses                   29                       # Number of integer alu accesses
system.cpu3.num_int_insts                          29                       # number of integer instructions
system.cpu3.num_int_register_reads                 56                       # number of times the integer registers were read
system.cpu3.num_int_register_writes                25                       # number of times the integer registers were written
system.cpu3.num_load_insts                          6                       # Number of load instructions
system.cpu3.num_mem_refs                            6                       # number of memory refs
system.cpu3.num_store_insts                         0                       # Number of store instructions
system.cpu3.num_vec_alu_accesses                    0                       # Number of vector alu accesses
system.cpu3.num_vec_insts                           0                       # number of vector instructions
system.cpu3.num_vec_register_reads                  0                       # number of times the vector registers were read
system.cpu3.num_vec_register_writes                 0                       # number of times the vector registers were written
system.cpu3.op_class::No_OpClass                    0      0.00%      0.00% # Class of executed instruction
system.cpu3.op_class::IntAlu                       23     79.31%     79.31% # Class of executed instruction
system.cpu3.op_class::IntMult                       0      0.00%     79.31% # Class of executed instruction
system.cpu3.op_class::IntDiv                        0      0.00%     79.31% # Class of executed instruction
system.cpu3.op_class::FloatAdd                      0      0.00%     79.31% # Class of executed instruction
system.cpu3.op_class::FloatCmp                      0      0.00%     79.31% # Class of executed instruction
system.cpu3.op_class::FloatCvt                      0      0.00%     79.31% # Class of executed instruction
system.cpu3.op_class::FloatMult                     0      0.00%     79.31% # Class of executed instruction
system.cpu3.op_class::FloatMultAcc                  0      0.00%     79.31% # Class of executed instruction
system.cpu3.op_class::FloatDiv                      0      0.00%     79.31% # Class of executed instruction
system.cpu3.op_class::FloatMisc                     0      0.00%     79.31% # Class of executed instruction
system.cpu3.op_class::FloatSqrt                     0      0.00%     79.31% # Class of executed instruction
system.cpu3.op_class::SimdAdd                       0      0.00%     79.31% # Class of executed instruction
system.cpu3.op_class::SimdAddAcc                    0      0.00%     79.31% # Class of executed instruction
system.cpu3.op_class::SimdAlu                       0      0.00%     79.31% # Class of executed instruction
system.cpu3.op_class::SimdCmp                       0      0.00%     79.31% # Class of executed instruction
system.cpu3.op_class::SimdCvt                       0      0.00%     79.31% # Class of executed instruction
system.cpu3.op_class::SimdMisc                      0      0.00%     79.31% # Class of executed instruction
system.cpu3.op_class::SimdMult                      0      0.00%     79.31% # Class of executed instruction
system.cpu3.op_class::SimdMultAcc                   0      0.00%     79.31% # Class of executed instruction
system.cpu3.op_class::SimdShift                     0      0.00%     79.31% # Class of executed instruction
system.cpu3.op_class::SimdShiftAcc                  0      0.00%     79.31% # Class of executed instruction
system.cpu3.op_class::SimdDiv                       0      0.00%     79.31% # Class of executed instruction
system.cpu3.op_class::SimdSqrt                      0      0.00%     79.31% # Class of executed instruction
system.cpu3.op_class::SimdFloatAdd                  0      0.00%     79.31% # Class of executed instruction
system.cpu3.op_class::SimdFloatAlu                  0      0.00%     79.31% # Class of executed instruction
system.cpu3.op_class::SimdFloatCmp                  0      0.00%     79.31% # Class of executed instruction
system.cpu3.op_class::SimdFloatCvt                  0      0.00%     79.31% # Class of executed instruction
system.cpu3.op_class::SimdFloatDiv                  0      0.00%     79.31% # Class of executed instruction
system.cpu3.op_class::SimdFloatMisc                 0      0.00%     79.31% # Class of executed instruction
system.cpu3.op_class::SimdFloatMult                 0      0.00%     79.31% # Class of executed instruction
system.cpu3.op_class::SimdFloatMultAcc              0      0.00%     79.31% # Class of executed instruction
system.cpu3.op_class::SimdFloatSqrt                 0      0.00%     79.31% # Class of executed instruction
system.cpu3.op_class::SimdReduceAdd                 0      0.00%     79.31% # Class of executed instruction
system.cpu3.op_class::SimdReduceAlu                 0      0.00%     79.31% # Class of executed instruction
system.cpu3.op_class::SimdReduceCmp                 0      0.00%     79.31% # Class of executed instruction
system.cpu3.op_class::SimdFloatReduceAdd            0      0.00%     79.31% # Class of executed instruction
system.cpu3.op_class::SimdFloatReduceCmp            0      0.00%     79.31% # Class of executed instruction
system.cpu3.op_class::SimdAes                       0      0.00%     79.31% # Class of executed instruction
system.cpu3.op_class::SimdAesMix                    0      0.00%     79.31% # Class of executed instruction
system.cpu3.op_class::SimdSha1Hash                  0      0.00%     79.31% # Class of executed instruction
system.cpu3.op_class::SimdSha1Hash2                 0      0.00%     79.31% # Class of executed instruction
system.cpu3.op_class::SimdSha256Hash                0      0.00%     79.31% # Class of executed instruction
system.cpu3.op_class::SimdSha256Hash2               0      0.00%     79.31% # Class of executed instruction
system.cpu3.op_class::SimdShaSigma2                 0      0.00%     79.31% # Class of executed instruction
system.cpu3.op_class::SimdShaSigma3                 0      0.00%     79.31% # Class of executed instruction
system.cpu3.op_class::SimdPredAlu                   0      0.00%     79.31% # Class of executed instruction
system.cpu3.op_class::MemRead                       6     20.69%    100.00% # Class of executed instruction
system.cpu3.op_class::MemWrite                      0      0.00%    100.00% # Class of executed instruction
system.cpu3.op_class::FloatMemRead                  0      0.00%    100.00% # Class of executed instruction
system.cpu3.op_class::FloatMemWrite                 0      0.00%    100.00% # Class of executed instruction
system.cpu3.op_class::IprAccess                     0      0.00%    100.00% # Class of executed instruction
system.cpu3.op_class::InstPrefetch                  0      0.00%    100.00% # Class of executed instruction
system.cpu3.op_class::total                        29                       # Class of executed instruction
system.cpu3.workload.numSyscalls                    0                       # Number of system calls
system.l3bus.snoop_filter.hit_multi_requests            0                       # Number of requests hitting in the snoop filter with multiple (>1) holders of the requested data.
system.l3bus.snoop_filter.hit_multi_snoops            0                       # Number of snoops hitting in the snoop filter with multiple (>1) holders of the requested data.
system.l3bus.snoop_filter.hit_single_requests            0                       # Number of requests hitting in the snoop filter with a single holder of the requested data.
system.l3bus.snoop_filter.hit_single_snoops            0                       # Number of snoops hitting in the snoop filter with a single holder of the requested data.
system.l3bus.snoop_filter.tot_requests           5501                       # Total number of requests made to the snoop filter.
system.l3bus.snoop_filter.tot_snoops                0                       # Total number of snoops made to the snoop filter.
system.membus.snoop_filter.hit_multi_requests            0                       # Number of requests hitting in the snoop filter with multiple (>1) holders of the requested data.
system.membus.snoop_filter.hit_multi_snoops            0                       # Number of snoops hitting in the snoop filter with multiple (>1) holders of the requested data.
system.membus.snoop_filter.hit_single_requests            0                       # Number of requests hitting in the snoop filter with a single holder of the requested data.
system.membus.snoop_filter.hit_single_snoops            0                       # Number of snoops hitting in the snoop filter with a single holder of the requested data.
system.membus.snoop_filter.tot_requests          5501                       # Total number of requests made to the snoop filter.
system.membus.snoop_filter.tot_snoops               0                       # Total number of snoops made to the snoop filter.
system.switch_cpus0.cc_regfile_reads        204540476                       # number of cc regfile reads
system.switch_cpus0.cc_regfile_writes       100510147                       # number of cc regfile writes
system.switch_cpus0.committedInsts          249996152                       # Number of Instructions Simulated
system.switch_cpus0.committedOps            450492606                       # Number of Ops (including micro ops) Simulated
system.switch_cpus0.cpi                      0.397917                       # CPI: Cycles Per Instruction
system.switch_cpus0.cpi_total                0.397917                       # CPI: Total CPI of All Threads
system.switch_cpus0.fp_regfile_reads        146663094                       # number of floating regfile reads
system.switch_cpus0.fp_regfile_writes        84013030                       # number of floating regfile writes
system.switch_cpus0.idleCycles                  74083                       # Total number of cycles that the CPU has spent unscheduled due to idling
system.switch_cpus0.iew.branchMispredicts      1092683                       # Number of branch mispredicts detected at execute
system.switch_cpus0.iew.exec_branches        46301792                       # Number of branches executed
system.switch_cpus0.iew.exec_nop                    0                       # number of nop insts executed
system.switch_cpus0.iew.exec_rate            4.822361                       # Inst execution rate
system.switch_cpus0.iew.exec_refs           140835770                       # number of memory reference insts executed
system.switch_cpus0.iew.exec_stores          42654363                       # Number of stores executed
system.switch_cpus0.iew.exec_swp                    0                       # number of swp insts executed
system.switch_cpus0.iew.iewBlockCycles        6043348                       # Number of cycles IEW is blocking
system.switch_cpus0.iew.iewDispLoadInsts    102954621                       # Number of dispatched load instructions
system.switch_cpus0.iew.iewDispNonSpecInsts            8                       # Number of dispatched non-speculative instructions
system.switch_cpus0.iew.iewDispSquashedInsts          257                       # Number of squashed instructions skipped by dispatch
system.switch_cpus0.iew.iewDispStoreInsts     45398886                       # Number of dispatched store instructions
system.switch_cpus0.iew.iewDispatchedInsts    502253728                       # Number of instructions dispatched to IQ
system.switch_cpus0.iew.iewExecLoadInsts     98181407                       # Number of load instructions executed
system.switch_cpus0.iew.iewExecSquashedInsts      3028894                       # Number of squashed instructions skipped in execute
system.switch_cpus0.iew.iewExecutedInsts    479717756                       # Number of executed instructions
system.switch_cpus0.iew.iewIQFullEvents         10050                       # Number of times the IQ has become full, causing a stall
system.switch_cpus0.iew.iewIdleCycles               0                       # Number of cycles IEW is idle
system.switch_cpus0.iew.iewLSQFullEvents       182461                       # Number of times the LSQ has become full, causing a stall
system.switch_cpus0.iew.iewSquashCycles        993292                       # Number of cycles IEW is squashing
system.switch_cpus0.iew.iewUnblockCycles       196199                       # Number of cycles IEW is unblocking
system.switch_cpus0.iew.memOrderViolationEvents        17459                       # Number of memory order violations
system.switch_cpus0.iew.predictedNotTakenIncorrect       731674                       # Number of branches that were predicted not taken incorrectly
system.switch_cpus0.iew.predictedTakenIncorrect       361009                       # Number of branches that were predicted taken incorrectly
system.switch_cpus0.iew.wb_consumers        628028608                       # num instructions consuming a value
system.switch_cpus0.iew.wb_count            477942975                       # cumulative count of insts written-back
system.switch_cpus0.iew.wb_fanout            0.567160                       # average fanout of values written-back
system.switch_cpus0.iew.wb_producers        356192762                       # num instructions producing a value
system.switch_cpus0.iew.wb_rate              4.804520                       # insts written-back per cycle
system.switch_cpus0.iew.wb_sent             479213359                       # cumulative count of insts sent to commit
system.switch_cpus0.int_regfile_reads       664475132                       # number of integer regfile reads
system.switch_cpus0.int_regfile_writes      299467619                       # number of integer regfile writes
system.switch_cpus0.ipc                      2.513085                       # IPC: Instructions Per Cycle
system.switch_cpus0.ipc_total                2.513085                       # IPC: Total IPC of All Threads
system.switch_cpus0.iq.FU_type_0::No_OpClass      2622172      0.54%      0.54% # Type of FU issued
system.switch_cpus0.iq.FU_type_0::IntAlu    289477150     59.96%     60.51% # Type of FU issued
system.switch_cpus0.iq.FU_type_0::IntMult       962203      0.20%     60.71% # Type of FU issued
system.switch_cpus0.iq.FU_type_0::IntDiv            0      0.00%     60.71% # Type of FU issued
system.switch_cpus0.iq.FU_type_0::FloatAdd      1082736      0.22%     60.93% # Type of FU issued
system.switch_cpus0.iq.FU_type_0::FloatCmp            0      0.00%     60.93% # Type of FU issued
system.switch_cpus0.iq.FU_type_0::FloatCvt            0      0.00%     60.93% # Type of FU issued
system.switch_cpus0.iq.FU_type_0::FloatMult            0      0.00%     60.93% # Type of FU issued
system.switch_cpus0.iq.FU_type_0::FloatMultAcc            0      0.00%     60.93% # Type of FU issued
system.switch_cpus0.iq.FU_type_0::FloatDiv            0      0.00%     60.93% # Type of FU issued
system.switch_cpus0.iq.FU_type_0::FloatMisc            0      0.00%     60.93% # Type of FU issued
system.switch_cpus0.iq.FU_type_0::FloatSqrt            0      0.00%     60.93% # Type of FU issued
system.switch_cpus0.iq.FU_type_0::SimdAdd            0      0.00%     60.93% # Type of FU issued
system.switch_cpus0.iq.FU_type_0::SimdAddAcc            0      0.00%     60.93% # Type of FU issued
system.switch_cpus0.iq.FU_type_0::SimdAlu      2983095      0.62%     61.55% # Type of FU issued
system.switch_cpus0.iq.FU_type_0::SimdCmp            0      0.00%     61.55% # Type of FU issued
system.switch_cpus0.iq.FU_type_0::SimdCvt            0      0.00%     61.55% # Type of FU issued
system.switch_cpus0.iq.FU_type_0::SimdMisc        80077      0.02%     61.57% # Type of FU issued
system.switch_cpus0.iq.FU_type_0::SimdMult            0      0.00%     61.57% # Type of FU issued
system.switch_cpus0.iq.FU_type_0::SimdMultAcc            0      0.00%     61.57% # Type of FU issued
system.switch_cpus0.iq.FU_type_0::SimdShift            0      0.00%     61.57% # Type of FU issued
system.switch_cpus0.iq.FU_type_0::SimdShiftAcc            0      0.00%     61.57% # Type of FU issued
system.switch_cpus0.iq.FU_type_0::SimdDiv            0      0.00%     61.57% # Type of FU issued
system.switch_cpus0.iq.FU_type_0::SimdSqrt            0      0.00%     61.57% # Type of FU issued
system.switch_cpus0.iq.FU_type_0::SimdFloatAdd     17493262      3.62%     65.19% # Type of FU issued
system.switch_cpus0.iq.FU_type_0::SimdFloatAlu            0      0.00%     65.19% # Type of FU issued
system.switch_cpus0.iq.FU_type_0::SimdFloatCmp        61424      0.01%     65.20% # Type of FU issued
system.switch_cpus0.iq.FU_type_0::SimdFloatCvt      7580187      1.57%     66.77% # Type of FU issued
system.switch_cpus0.iq.FU_type_0::SimdFloatDiv       605485      0.13%     66.90% # Type of FU issued
system.switch_cpus0.iq.FU_type_0::SimdFloatMisc            0      0.00%     66.90% # Type of FU issued
system.switch_cpus0.iq.FU_type_0::SimdFloatMult     17349565      3.59%     70.49% # Type of FU issued
system.switch_cpus0.iq.FU_type_0::SimdFloatMultAcc            0      0.00%     70.49% # Type of FU issued
system.switch_cpus0.iq.FU_type_0::SimdFloatSqrt        38394      0.01%     70.50% # Type of FU issued
system.switch_cpus0.iq.FU_type_0::SimdReduceAdd            0      0.00%     70.50% # Type of FU issued
system.switch_cpus0.iq.FU_type_0::SimdReduceAlu            0      0.00%     70.50% # Type of FU issued
system.switch_cpus0.iq.FU_type_0::SimdReduceCmp            0      0.00%     70.50% # Type of FU issued
system.switch_cpus0.iq.FU_type_0::SimdFloatReduceAdd            0      0.00%     70.50% # Type of FU issued
system.switch_cpus0.iq.FU_type_0::SimdFloatReduceCmp            0      0.00%     70.50% # Type of FU issued
system.switch_cpus0.iq.FU_type_0::SimdAes            0      0.00%     70.50% # Type of FU issued
system.switch_cpus0.iq.FU_type_0::SimdAesMix            0      0.00%     70.50% # Type of FU issued
system.switch_cpus0.iq.FU_type_0::SimdSha1Hash            0      0.00%     70.50% # Type of FU issued
system.switch_cpus0.iq.FU_type_0::SimdSha1Hash2            0      0.00%     70.50% # Type of FU issued
system.switch_cpus0.iq.FU_type_0::SimdSha256Hash            0      0.00%     70.50% # Type of FU issued
system.switch_cpus0.iq.FU_type_0::SimdSha256Hash2            0      0.00%     70.50% # Type of FU issued
system.switch_cpus0.iq.FU_type_0::SimdShaSigma2            0      0.00%     70.50% # Type of FU issued
system.switch_cpus0.iq.FU_type_0::SimdShaSigma3            0      0.00%     70.50% # Type of FU issued
system.switch_cpus0.iq.FU_type_0::SimdPredAlu            0      0.00%     70.50% # Type of FU issued
system.switch_cpus0.iq.FU_type_0::MemRead     61662713     12.77%     83.27% # Type of FU issued
system.switch_cpus0.iq.FU_type_0::MemWrite     36575652      7.58%     90.85% # Type of FU issued
system.switch_cpus0.iq.FU_type_0::FloatMemRead     37783178      7.83%     98.68% # Type of FU issued
system.switch_cpus0.iq.FU_type_0::FloatMemWrite      6389361      1.32%    100.00% # Type of FU issued
system.switch_cpus0.iq.FU_type_0::IprAccess            0      0.00%    100.00% # Type of FU issued
system.switch_cpus0.iq.FU_type_0::InstPrefetch            0      0.00%    100.00% # Type of FU issued
system.switch_cpus0.iq.FU_type_0::total     482746654                       # Type of FU issued
system.switch_cpus0.iq.fp_alu_accesses      102887426                       # Number of floating point alu accesses
system.switch_cpus0.iq.fp_inst_queue_reads    200764592                       # Number of floating instruction queue reads
system.switch_cpus0.iq.fp_inst_queue_wakeup_accesses     96433054                       # Number of floating instruction queue wakeup accesses
system.switch_cpus0.iq.fp_inst_queue_writes    108419649                       # Number of floating instruction queue writes
system.switch_cpus0.iq.fu_busy_cnt           13672711                       # FU busy when requested
system.switch_cpus0.iq.fu_busy_rate          0.028323                       # FU busy rate (busy events/executed inst)
system.switch_cpus0.iq.fu_full::No_OpClass            0      0.00%      0.00% # attempts to use FU when none available
system.switch_cpus0.iq.fu_full::IntAlu        4041562     29.56%     29.56% # attempts to use FU when none available
system.switch_cpus0.iq.fu_full::IntMult             0      0.00%     29.56% # attempts to use FU when none available
system.switch_cpus0.iq.fu_full::IntDiv              0      0.00%     29.56% # attempts to use FU when none available
system.switch_cpus0.iq.fu_full::FloatAdd         9886      0.07%     29.63% # attempts to use FU when none available
system.switch_cpus0.iq.fu_full::FloatCmp            0      0.00%     29.63% # attempts to use FU when none available
system.switch_cpus0.iq.fu_full::FloatCvt            0      0.00%     29.63% # attempts to use FU when none available
system.switch_cpus0.iq.fu_full::FloatMult            0      0.00%     29.63% # attempts to use FU when none available
system.switch_cpus0.iq.fu_full::FloatMultAcc            0      0.00%     29.63% # attempts to use FU when none available
system.switch_cpus0.iq.fu_full::FloatDiv            0      0.00%     29.63% # attempts to use FU when none available
system.switch_cpus0.iq.fu_full::FloatMisc            0      0.00%     29.63% # attempts to use FU when none available
system.switch_cpus0.iq.fu_full::FloatSqrt            0      0.00%     29.63% # attempts to use FU when none available
system.switch_cpus0.iq.fu_full::SimdAdd             0      0.00%     29.63% # attempts to use FU when none available
system.switch_cpus0.iq.fu_full::SimdAddAcc            0      0.00%     29.63% # attempts to use FU when none available
system.switch_cpus0.iq.fu_full::SimdAlu        217303      1.59%     31.22% # attempts to use FU when none available
system.switch_cpus0.iq.fu_full::SimdCmp             0      0.00%     31.22% # attempts to use FU when none available
system.switch_cpus0.iq.fu_full::SimdCvt             0      0.00%     31.22% # attempts to use FU when none available
system.switch_cpus0.iq.fu_full::SimdMisc            0      0.00%     31.22% # attempts to use FU when none available
system.switch_cpus0.iq.fu_full::SimdMult            0      0.00%     31.22% # attempts to use FU when none available
system.switch_cpus0.iq.fu_full::SimdMultAcc            0      0.00%     31.22% # attempts to use FU when none available
system.switch_cpus0.iq.fu_full::SimdShift            0      0.00%     31.22% # attempts to use FU when none available
system.switch_cpus0.iq.fu_full::SimdShiftAcc            0      0.00%     31.22% # attempts to use FU when none available
system.switch_cpus0.iq.fu_full::SimdDiv             0      0.00%     31.22% # attempts to use FU when none available
system.switch_cpus0.iq.fu_full::SimdSqrt            0      0.00%     31.22% # attempts to use FU when none available
system.switch_cpus0.iq.fu_full::SimdFloatAdd       506543      3.70%     34.93% # attempts to use FU when none available
system.switch_cpus0.iq.fu_full::SimdFloatAlu            0      0.00%     34.93% # attempts to use FU when none available
system.switch_cpus0.iq.fu_full::SimdFloatCmp            0      0.00%     34.93% # attempts to use FU when none available
system.switch_cpus0.iq.fu_full::SimdFloatCvt        54528      0.40%     35.32% # attempts to use FU when none available
system.switch_cpus0.iq.fu_full::SimdFloatDiv            0      0.00%     35.32% # attempts to use FU when none available
system.switch_cpus0.iq.fu_full::SimdFloatMisc            0      0.00%     35.32% # attempts to use FU when none available
system.switch_cpus0.iq.fu_full::SimdFloatMult       340563      2.49%     37.82% # attempts to use FU when none available
system.switch_cpus0.iq.fu_full::SimdFloatMultAcc            0      0.00%     37.82% # attempts to use FU when none available
system.switch_cpus0.iq.fu_full::SimdFloatSqrt            0      0.00%     37.82% # attempts to use FU when none available
system.switch_cpus0.iq.fu_full::SimdReduceAdd            0      0.00%     37.82% # attempts to use FU when none available
system.switch_cpus0.iq.fu_full::SimdReduceAlu            0      0.00%     37.82% # attempts to use FU when none available
system.switch_cpus0.iq.fu_full::SimdReduceCmp            0      0.00%     37.82% # attempts to use FU when none available
system.switch_cpus0.iq.fu_full::SimdFloatReduceAdd            0      0.00%     37.82% # attempts to use FU when none available
system.switch_cpus0.iq.fu_full::SimdFloatReduceCmp            0      0.00%     37.82% # attempts to use FU when none available
system.switch_cpus0.iq.fu_full::SimdAes             0      0.00%     37.82% # attempts to use FU when none available
system.switch_cpus0.iq.fu_full::SimdAesMix            0      0.00%     37.82% # attempts to use FU when none available
system.switch_cpus0.iq.fu_full::SimdSha1Hash            0      0.00%     37.82% # attempts to use FU when none available
system.switch_cpus0.iq.fu_full::SimdSha1Hash2            0      0.00%     37.82% # attempts to use FU when none available
system.switch_cpus0.iq.fu_full::SimdSha256Hash            0      0.00%     37.82% # attempts to use FU when none available
system.switch_cpus0.iq.fu_full::SimdSha256Hash2            0      0.00%     37.82% # attempts to use FU when none available
system.switch_cpus0.iq.fu_full::SimdShaSigma2            0      0.00%     37.82% # attempts to use FU when none available
system.switch_cpus0.iq.fu_full::SimdShaSigma3            0      0.00%     37.82% # attempts to use FU when none available
system.switch_cpus0.iq.fu_full::SimdPredAlu            0      0.00%     37.82% # attempts to use FU when none available
system.switch_cpus0.iq.fu_full::MemRead       3270510     23.92%     61.74% # attempts to use FU when none available
system.switch_cpus0.iq.fu_full::MemWrite      1157023      8.46%     70.20% # attempts to use FU when none available
system.switch_cpus0.iq.fu_full::FloatMemRead      3542846     25.91%     96.11% # attempts to use FU when none available
system.switch_cpus0.iq.fu_full::FloatMemWrite       531947      3.89%    100.00% # attempts to use FU when none available
system.switch_cpus0.iq.fu_full::IprAccess            0      0.00%    100.00% # attempts to use FU when none available
system.switch_cpus0.iq.fu_full::InstPrefetch            0      0.00%    100.00% # attempts to use FU when none available
system.switch_cpus0.iq.int_alu_accesses     390909767                       # Number of integer alu accesses
system.switch_cpus0.iq.int_inst_queue_reads    878512084                       # Number of integer instruction queue reads
system.switch_cpus0.iq.int_inst_queue_wakeup_accesses    381509921                       # Number of integer instruction queue wakeup accesses
system.switch_cpus0.iq.int_inst_queue_writes    445612405                       # Number of integer instruction queue writes
system.switch_cpus0.iq.iqInstsAdded         502253716                       # Number of instructions added to the IQ (excludes non-spec)
system.switch_cpus0.iq.iqInstsIssued        482746654                       # Number of instructions issued
system.switch_cpus0.iq.iqNonSpecInstsAdded           12                       # Number of non-speculative instructions added to the IQ
system.switch_cpus0.iq.iqSquashedInstsExamined     51761058                       # Number of squashed instructions iterated over during squash; mainly for profiling
system.switch_cpus0.iq.iqSquashedInstsIssued       706958                       # Number of squashed instructions issued
system.switch_cpus0.iq.iqSquashedNonSpecRemoved           12                       # Number of squashed non-spec instructions that were removed
system.switch_cpus0.iq.iqSquashedOperandsExamined     74998965                       # Number of squashed operands that are examined and possibly removed from graph
system.switch_cpus0.iq.issued_per_cycle::samples     99403703                       # Number of insts issued each cycle
system.switch_cpus0.iq.issued_per_cycle::mean     4.856425                       # Number of insts issued each cycle
system.switch_cpus0.iq.issued_per_cycle::stdev     2.689300                       # Number of insts issued each cycle
system.switch_cpus0.iq.issued_per_cycle::underflows            0      0.00%      0.00% # Number of insts issued each cycle
system.switch_cpus0.iq.issued_per_cycle::0     13733321     13.82%     13.82% # Number of insts issued each cycle
system.switch_cpus0.iq.issued_per_cycle::1      2726001      2.74%     16.56% # Number of insts issued each cycle
system.switch_cpus0.iq.issued_per_cycle::2      5141683      5.17%     21.73% # Number of insts issued each cycle
system.switch_cpus0.iq.issued_per_cycle::3      6698176      6.74%     28.47% # Number of insts issued each cycle
system.switch_cpus0.iq.issued_per_cycle::4      9443988      9.50%     37.97% # Number of insts issued each cycle
system.switch_cpus0.iq.issued_per_cycle::5     12217655     12.29%     50.26% # Number of insts issued each cycle
system.switch_cpus0.iq.issued_per_cycle::6     15172923     15.26%     65.52% # Number of insts issued each cycle
system.switch_cpus0.iq.issued_per_cycle::7     14418654     14.51%     80.03% # Number of insts issued each cycle
system.switch_cpus0.iq.issued_per_cycle::8     19851302     19.97%    100.00% # Number of insts issued each cycle
system.switch_cpus0.iq.issued_per_cycle::overflows            0      0.00%    100.00% # Number of insts issued each cycle
system.switch_cpus0.iq.issued_per_cycle::min_value            0                       # Number of insts issued each cycle
system.switch_cpus0.iq.issued_per_cycle::max_value            8                       # Number of insts issued each cycle
system.switch_cpus0.iq.issued_per_cycle::total     99403703                       # Number of insts issued each cycle
system.switch_cpus0.iq.rate                  4.852809                       # Inst issue rate
system.switch_cpus0.iq.vec_alu_accesses             0                       # Number of vector alu accesses
system.switch_cpus0.iq.vec_inst_queue_reads            0                       # Number of vector instruction queue reads
system.switch_cpus0.iq.vec_inst_queue_wakeup_accesses            0                       # Number of vector instruction queue wakeup accesses
system.switch_cpus0.iq.vec_inst_queue_writes            0                       # Number of vector instruction queue writes
system.switch_cpus0.memDep0.conflictingLoads      5195672                       # Number of conflicting loads.
system.switch_cpus0.memDep0.conflictingStores      2547397                       # Number of conflicting stores.
system.switch_cpus0.memDep0.insertedLoads    102954621                       # Number of loads inserted to the mem dependence unit.
system.switch_cpus0.memDep0.insertedStores     45398886                       # Number of stores inserted to the mem dependence unit.
system.switch_cpus0.misc_regfile_reads      236405505                       # number of misc regfile reads
system.switch_cpus0.misc_regfile_writes             1                       # number of misc regfile writes
system.switch_cpus0.numCycles                99477786                       # number of cpu cycles simulated
system.switch_cpus0.numWorkItemsCompleted            0                       # number of work items this cpu completed
system.switch_cpus0.numWorkItemsStarted             0                       # number of work items this cpu started
system.switch_cpus0.timesIdled                    332                       # Number of times that the entire CPU went into an idle state and unscheduled itself
system.switch_cpus1.cc_regfile_reads        204544171                       # number of cc regfile reads
system.switch_cpus1.cc_regfile_writes       100511995                       # number of cc regfile writes
system.switch_cpus1.committedInsts          250000002                       # Number of Instructions Simulated
system.switch_cpus1.committedOps            450499431                       # Number of Ops (including micro ops) Simulated
system.switch_cpus1.cpi                      0.397911                       # CPI: Cycles Per Instruction
system.switch_cpus1.cpi_total                0.397911                       # CPI: Total CPI of All Threads
system.switch_cpus1.fp_regfile_reads        146665646                       # number of floating regfile reads
system.switch_cpus1.fp_regfile_writes        84014822                       # number of floating regfile writes
system.switch_cpus1.idleCycles                  74907                       # Total number of cycles that the CPU has spent unscheduled due to idling
system.switch_cpus1.iew.branchMispredicts      1092721                       # Number of branch mispredicts detected at execute
system.switch_cpus1.iew.exec_branches        46302786                       # Number of branches executed
system.switch_cpus1.iew.exec_nop                    0                       # number of nop insts executed
system.switch_cpus1.iew.exec_rate            4.822464                       # Inst execution rate
system.switch_cpus1.iew.exec_refs           140839162                       # number of memory reference insts executed
system.switch_cpus1.iew.exec_stores          42655500                       # Number of stores executed
system.switch_cpus1.iew.exec_swp                    0                       # number of swp insts executed
system.switch_cpus1.iew.iewBlockCycles        6043856                       # Number of cycles IEW is blocking
system.switch_cpus1.iew.iewDispLoadInsts    102957235                       # Number of dispatched load instructions
system.switch_cpus1.iew.iewDispNonSpecInsts            8                       # Number of dispatched non-speculative instructions
system.switch_cpus1.iew.iewDispSquashedInsts          257                       # Number of squashed instructions skipped by dispatch
system.switch_cpus1.iew.iewDispStoreInsts     45399930                       # Number of dispatched store instructions
system.switch_cpus1.iew.iewDispatchedInsts    502266783                       # Number of instructions dispatched to IQ
system.switch_cpus1.iew.iewExecLoadInsts     98183662                       # Number of load instructions executed
system.switch_cpus1.iew.iewExecSquashedInsts      3028620                       # Number of squashed instructions skipped in execute
system.switch_cpus1.iew.iewExecutedInsts    479728041                       # Number of executed instructions
system.switch_cpus1.iew.iewIQFullEvents         10067                       # Number of times the IQ has become full, causing a stall
system.switch_cpus1.iew.iewIdleCycles               0                       # Number of cycles IEW is idle
system.switch_cpus1.iew.iewLSQFullEvents       182307                       # Number of times the LSQ has become full, causing a stall
system.switch_cpus1.iew.iewSquashCycles        993346                       # Number of cycles IEW is squashing
system.switch_cpus1.iew.iewUnblockCycles       196066                       # Number of cycles IEW is unblocking
system.switch_cpus1.iew.memOrderViolationEvents        17464                       # Number of memory order violations
system.switch_cpus1.iew.predictedNotTakenIncorrect       731737                       # Number of branches that were predicted not taken incorrectly
system.switch_cpus1.iew.predictedTakenIncorrect       360984                       # Number of branches that were predicted taken incorrectly
system.switch_cpus1.iew.wb_consumers        628043422                       # num instructions consuming a value
system.switch_cpus1.iew.wb_count            477952896                       # cumulative count of insts written-back
system.switch_cpus1.iew.wb_fanout            0.567159                       # average fanout of values written-back
system.switch_cpus1.iew.wb_producers        356200252                       # num instructions producing a value
system.switch_cpus1.iew.wb_rate              4.804619                       # insts written-back per cycle
system.switch_cpus1.iew.wb_sent             479223676                       # cumulative count of insts sent to commit
system.switch_cpus1.int_regfile_reads       664489888                       # number of integer regfile reads
system.switch_cpus1.int_regfile_writes      299473894                       # number of integer regfile writes
system.switch_cpus1.ipc                      2.513124                       # IPC: Instructions Per Cycle
system.switch_cpus1.ipc_total                2.513124                       # IPC: Total IPC of All Threads
system.switch_cpus1.iq.FU_type_0::No_OpClass      2622208      0.54%      0.54% # Type of FU issued
system.switch_cpus1.iq.FU_type_0::IntAlu    289483149     59.96%     60.51% # Type of FU issued
system.switch_cpus1.iq.FU_type_0::IntMult       962259      0.20%     60.71% # Type of FU issued
system.switch_cpus1.iq.FU_type_0::IntDiv            0      0.00%     60.71% # Type of FU issued
system.switch_cpus1.iq.FU_type_0::FloatAdd      1082722      0.22%     60.93% # Type of FU issued
system.switch_cpus1.iq.FU_type_0::FloatCmp            0      0.00%     60.93% # Type of FU issued
system.switch_cpus1.iq.FU_type_0::FloatCvt            0      0.00%     60.93% # Type of FU issued
system.switch_cpus1.iq.FU_type_0::FloatMult            0      0.00%     60.93% # Type of FU issued
system.switch_cpus1.iq.FU_type_0::FloatMultAcc            0      0.00%     60.93% # Type of FU issued
system.switch_cpus1.iq.FU_type_0::FloatDiv            0      0.00%     60.93% # Type of FU issued
system.switch_cpus1.iq.FU_type_0::FloatMisc            0      0.00%     60.93% # Type of FU issued
system.switch_cpus1.iq.FU_type_0::FloatSqrt            0      0.00%     60.93% # Type of FU issued
system.switch_cpus1.iq.FU_type_0::SimdAdd            0      0.00%     60.93% # Type of FU issued
system.switch_cpus1.iq.FU_type_0::SimdAddAcc            0      0.00%     60.93% # Type of FU issued
system.switch_cpus1.iq.FU_type_0::SimdAlu      2983129      0.62%     61.55% # Type of FU issued
system.switch_cpus1.iq.FU_type_0::SimdCmp            0      0.00%     61.55% # Type of FU issued
system.switch_cpus1.iq.FU_type_0::SimdCvt            0      0.00%     61.55% # Type of FU issued
system.switch_cpus1.iq.FU_type_0::SimdMisc        80077      0.02%     61.57% # Type of FU issued
system.switch_cpus1.iq.FU_type_0::SimdMult            0      0.00%     61.57% # Type of FU issued
system.switch_cpus1.iq.FU_type_0::SimdMultAcc            0      0.00%     61.57% # Type of FU issued
system.switch_cpus1.iq.FU_type_0::SimdShift            0      0.00%     61.57% # Type of FU issued
system.switch_cpus1.iq.FU_type_0::SimdShiftAcc            0      0.00%     61.57% # Type of FU issued
system.switch_cpus1.iq.FU_type_0::SimdDiv            0      0.00%     61.57% # Type of FU issued
system.switch_cpus1.iq.FU_type_0::SimdSqrt            0      0.00%     61.57% # Type of FU issued
system.switch_cpus1.iq.FU_type_0::SimdFloatAdd     17493578      3.62%     65.19% # Type of FU issued
system.switch_cpus1.iq.FU_type_0::SimdFloatAlu            0      0.00%     65.19% # Type of FU issued
system.switch_cpus1.iq.FU_type_0::SimdFloatCmp        61424      0.01%     65.20% # Type of FU issued
system.switch_cpus1.iq.FU_type_0::SimdFloatCvt      7580315      1.57%     66.77% # Type of FU issued
system.switch_cpus1.iq.FU_type_0::SimdFloatDiv       605498      0.13%     66.90% # Type of FU issued
system.switch_cpus1.iq.FU_type_0::SimdFloatMisc            0      0.00%     66.90% # Type of FU issued
system.switch_cpus1.iq.FU_type_0::SimdFloatMult     17349871      3.59%     70.49% # Type of FU issued
system.switch_cpus1.iq.FU_type_0::SimdFloatMultAcc            0      0.00%     70.49% # Type of FU issued
system.switch_cpus1.iq.FU_type_0::SimdFloatSqrt        38395      0.01%     70.50% # Type of FU issued
system.switch_cpus1.iq.FU_type_0::SimdReduceAdd            0      0.00%     70.50% # Type of FU issued
system.switch_cpus1.iq.FU_type_0::SimdReduceAlu            0      0.00%     70.50% # Type of FU issued
system.switch_cpus1.iq.FU_type_0::SimdReduceCmp            0      0.00%     70.50% # Type of FU issued
system.switch_cpus1.iq.FU_type_0::SimdFloatReduceAdd            0      0.00%     70.50% # Type of FU issued
system.switch_cpus1.iq.FU_type_0::SimdFloatReduceCmp            0      0.00%     70.50% # Type of FU issued
[...]
system.switch_cpus3.commit.numCommittedDist::2      5083424      5.50%     30.60% # Number of insts commited each cycle
system.switch_cpus3.commit.numCommittedDist::3     10115337     10.94%     41.54% # Number of insts commited each cycle
system.switch_cpus3.commit.numCommittedDist::4      3178776      3.44%     44.98% # Number of insts commited each cycle
system.switch_cpus3.commit.numCommittedDist::5      2227355      2.41%     47.39% # Number of insts commited each cycle
system.switch_cpus3.commit.numCommittedDist::6      3401246      3.68%     51.06% # Number of insts commited each cycle
system.switch_cpus3.commit.numCommittedDist::7      3499982      3.79%     54.85% # Number of insts commited each cycle
system.switch_cpus3.commit.numCommittedDist::8     41747464     45.15%    100.00% # Number of insts commited each cycle
system.switch_cpus3.commit.numCommittedDist::overflows            0      0.00%    100.00% # Number of insts commited each cycle
system.switch_cpus3.commit.numCommittedDist::min_value            0                       # Number of insts commited each cycle
system.switch_cpus3.commit.numCommittedDist::max_value            8                       # Number of insts commited each cycle
system.switch_cpus3.commit.numCommittedDist::total     92464221                       # Number of insts commited each cycle
system.switch_cpus3.commit.instsCommitted    249995801                       # Number of instructions committed
system.switch_cpus3.commit.opsCommitted     450492014                       # Number of ops (including micro ops) committed
system.switch_cpus3.commit.memRefs          132211533                       # Number of memory references committed
system.switch_cpus3.commit.loads             91795047                       # Number of loads committed
system.switch_cpus3.commit.amos                     0                       # Number of atomic instructions committed
system.switch_cpus3.commit.membars                  0                       # Number of memory barriers committed
system.switch_cpus3.commit.branches          44283939                       # Number of branches committed
system.switch_cpus3.commit.vector                   0                       # Number of committed Vector instructions.
system.switch_cpus3.commit.floating          93659509                       # Number of committed floating point instructions.
system.switch_cpus3.commit.integer          395877913                       # Number of committed integer instructions.
system.switch_cpus3.commit.functionCalls      6935165                       # Number of function calls committed.
system.switch_cpus3.commit.committedInstType_0::No_OpClass      2418304      0.54%      0.54% # Class of committed instruction
system.switch_cpus3.commit.committedInstType_0::IntAlu    268725523     59.65%     60.19% # Class of committed instruction
system.switch_cpus3.commit.committedInstType_0::IntMult       953138      0.21%     60.40% # Class of committed instruction
system.switch_cpus3.commit.committedInstType_0::IntDiv            0      0.00%     60.40% # Class of committed instruction
system.switch_cpus3.commit.committedInstType_0::FloatAdd      1017886      0.23%     60.63% # Class of committed instruction
system.switch_cpus3.commit.committedInstType_0::FloatCmp            0      0.00%     60.63% # Class of committed instruction
system.switch_cpus3.commit.committedInstType_0::FloatCvt            0      0.00%     60.63% # Class of committed instruction
system.switch_cpus3.commit.committedInstType_0::FloatMult            0      0.00%     60.63% # Class of committed instruction
system.switch_cpus3.commit.committedInstType_0::FloatMultAcc            0      0.00%     60.63% # Class of committed instruction
system.switch_cpus3.commit.committedInstType_0::FloatDiv            0      0.00%     60.63% # Class of committed instruction
system.switch_cpus3.commit.committedInstType_0::FloatMisc            0      0.00%     60.63% # Class of committed instruction
system.switch_cpus3.commit.committedInstType_0::FloatSqrt            0      0.00%     60.63% # Class of committed instruction
system.switch_cpus3.commit.committedInstType_0::SimdAdd            0      0.00%     60.63% # Class of committed instruction
system.switch_cpus3.commit.committedInstType_0::SimdAddAcc            0      0.00%     60.63% # Class of committed instruction
system.switch_cpus3.commit.committedInstType_0::SimdAlu      2922488      0.65%     61.27% # Class of committed instruction
system.switch_cpus3.commit.committedInstType_0::SimdCmp            0      0.00%     61.27% # Class of committed instruction
system.switch_cpus3.commit.committedInstType_0::SimdCvt            0      0.00%     61.27% # Class of committed instruction
system.switch_cpus3.commit.committedInstType_0::SimdMisc        80071      0.02%     61.29% # Class of committed instruction
system.switch_cpus3.commit.committedInstType_0::SimdMult            0      0.00%     61.29% # Class of committed instruction
system.switch_cpus3.commit.committedInstType_0::SimdMultAcc            0      0.00%     61.29% # Class of committed instruction
system.switch_cpus3.commit.committedInstType_0::SimdShift            0      0.00%     61.29% # Class of committed instruction
system.switch_cpus3.commit.committedInstType_0::SimdShiftAcc            0      0.00%     61.29% # Class of committed instruction
system.switch_cpus3.commit.committedInstType_0::SimdDiv            0      0.00%     61.29% # Class of committed instruction
system.switch_cpus3.commit.committedInstType_0::SimdSqrt            0      0.00%     61.29% # Class of committed instruction
system.switch_cpus3.commit.committedInstType_0::SimdFloatAdd     17150342      3.81%     65.10% # Class of committed instruction
system.switch_cpus3.commit.committedInstType_0::SimdFloatAlu            0      0.00%     65.10% # Class of committed instruction
system.switch_cpus3.commit.committedInstType_0::SimdFloatCmp        61424      0.01%     65.11% # Class of committed instruction
system.switch_cpus3.commit.committedInstType_0::SimdFloatCvt      7400143      1.64%     66.76% # Class of committed instruction
system.switch_cpus3.commit.committedInstType_0::SimdFloatDiv       592152      0.13%     66.89% # Class of committed instruction
system.switch_cpus3.commit.committedInstType_0::SimdFloatMisc            0      0.00%     66.89% # Class of committed instruction
system.switch_cpus3.commit.committedInstType_0::SimdFloatMult     16927277      3.76%     70.64% # Class of committed instruction
system.switch_cpus3.commit.committedInstType_0::SimdFloatMultAcc            0      0.00%     70.64% # Class of committed instruction
system.switch_cpus3.commit.committedInstType_0::SimdFloatSqrt        31733      0.01%     70.65% # Class of committed instruction
system.switch_cpus3.commit.committedInstType_0::SimdReduceAdd            0      0.00%     70.65% # Class of committed instruction
system.switch_cpus3.commit.committedInstType_0::SimdReduceAlu            0      0.00%     70.65% # Class of committed instruction
system.switch_cpus3.commit.committedInstType_0::SimdReduceCmp            0      0.00%     70.65% # Class of committed instruction
system.switch_cpus3.commit.committedInstType_0::SimdFloatReduceAdd            0      0.00%     70.65% # Class of committed instruction
system.switch_cpus3.commit.committedInstType_0::SimdFloatReduceCmp            0      0.00%     70.65% # Class of committed instruction
system.switch_cpus3.commit.committedInstType_0::SimdAes            0      0.00%     70.65% # Class of committed instruction
system.switch_cpus3.commit.committedInstType_0::SimdAesMix            0      0.00%     70.65% # Class of committed instruction
system.switch_cpus3.commit.committedInstType_0::SimdSha1Hash            0      0.00%     70.65% # Class of committed instruction
system.switch_cpus3.commit.committedInstType_0::SimdSha1Hash2            0      0.00%     70.65% # Class of committed instruction
system.switch_cpus3.commit.committedInstType_0::SimdSha256Hash            0      0.00%     70.65% # Class of committed instruction
system.switch_cpus3.commit.committedInstType_0::SimdSha256Hash2            0      0.00%     70.65% # Class of committed instruction
system.switch_cpus3.commit.committedInstType_0::SimdShaSigma2            0      0.00%     70.65% # Class of committed instruction
system.switch_cpus3.commit.committedInstType_0::SimdShaSigma3            0      0.00%     70.65% # Class of committed instruction
system.switch_cpus3.commit.committedInstType_0::SimdPredAlu            0      0.00%     70.65% # Class of committed instruction
system.switch_cpus3.commit.committedInstType_0::MemRead     56693825     12.58%     83.24% # Class of committed instruction
system.switch_cpus3.commit.committedInstType_0::MemWrite     34125292      7.58%     90.81% # Class of committed instruction
system.switch_cpus3.commit.committedInstType_0::FloatMemRead     35101222      7.79%     98.60% # Class of committed instruction
system.switch_cpus3.commit.committedInstType_0::FloatMemWrite      6291194      1.40%    100.00% # Class of committed instruction
system.switch_cpus3.commit.committedInstType_0::IprAccess            0      0.00%    100.00% # Class of committed instruction
system.switch_cpus3.commit.committedInstType_0::InstPrefetch            0      0.00%    100.00% # Class of committed instruction
system.switch_cpus3.commit.committedInstType_0::total    450492014                       # Class of committed instruction
system.switch_cpus3.commit.commitEligibleSamples     41747464                       # number cycles where commit BW limit reached
system.switch_cpus3.decode.idleCycles         5910378                       # Number of cycles decode is idle
system.switch_cpus3.decode.blockedCycles     15051323                       # Number of cycles decode is blocked
system.switch_cpus3.decode.runCycles         71364141                       # Number of cycles decode is running
system.switch_cpus3.decode.unblockCycles      6084689                       # Number of cycles decode is unblocking
system.switch_cpus3.decode.squashCycles        993383                       # Number of cycles decode is squashing
system.switch_cpus3.decode.branchResolved     21313728                       # Number of times decode resolved a  branch
system.switch_cpus3.decode.branchMispred        70949                       # Number of times decode detected a branch misprediction
system.switch_cpus3.decode.decodedInsts     520792390                       # Number of instructions handled by decode
system.switch_cpus3.decode.squashedInsts       431060                       # Number of squashed instructions handled by decode
system.switch_cpus3.dtb.rdAccesses           98385839                       # TLB accesses on read requests
system.switch_cpus3.dtb.wrAccesses           42655141                       # TLB accesses on write requests
system.switch_cpus3.dtb.rdMisses               667825                       # TLB misses on read requests
system.switch_cpus3.dtb.wrMisses               108436                       # TLB misses on write requests
system.switch_cpus3.dtb.walker.power_state.pwrStateResidencyTicks::UNDEFINED 17928131693562                       # Cumulative time (in ticks) in various power states
system.switch_cpus3.fetch.icacheStallCycles       972519                       # Number of cycles fetch is stalled on an Icache miss
system.switch_cpus3.fetch.insts             294848812                       # Number of instructions fetch has processed
system.switch_cpus3.fetch.branches           52468888                       # Number of branches that fetch encountered
system.switch_cpus3.fetch.predictedBranches     32890794                       # Number of branches that fetch has predicted taken
system.switch_cpus3.fetch.cycles             97367069                       # Number of cycles fetch has run and was not squashing or blocked
system.switch_cpus3.fetch.squashCycles        2127634                       # Number of cycles fetch has spent squashing
system.switch_cpus3.fetch.miscStallCycles           65                       # Number of cycles fetch has spent waiting on interrupts,or bad addresses, or out of MSHRs
system.switch_cpus3.fetch.pendingTrapStallCycles          398                       # Number of stall cycles due to pending traps
system.switch_cpus3.fetch.pendingQuiesceStallCycles           47                       # Number of stall cycles due to pending quiesce instructions
system.switch_cpus3.fetch.cacheLines         45451432                       # Number of cache lines fetched
system.switch_cpus3.fetch.icacheSquashes          323                       # Number of outstanding Icache misses that were squashed
system.switch_cpus3.fetch.nisnDist::samples     99403915                       # Number of instructions fetched each cycle (Total)
system.switch_cpus3.fetch.nisnDist::mean     5.366410                       # Number of instructions fetched each cycle (Total)
system.switch_cpus3.fetch.nisnDist::stdev     2.940326                       # Number of instructions fetched each cycle (Total)
system.switch_cpus3.fetch.nisnDist::underflows            0      0.00%      0.00% # Number of instructions fetched each cycle (Total)
system.switch_cpus3.fetch.nisnDist::0        11492901     11.56%     11.56% # Number of instructions fetched each cycle (Total)
system.switch_cpus3.fetch.nisnDist::1         4185358      4.21%     15.77% # Number of instructions fetched each cycle (Total)
system.switch_cpus3.fetch.nisnDist::2         6650427      6.69%     22.46% # Number of instructions fetched each cycle (Total)
system.switch_cpus3.fetch.nisnDist::3         4383045      4.41%     26.87% # Number of instructions fetched each cycle (Total)
system.switch_cpus3.fetch.nisnDist::4        11994885     12.07%     38.94% # Number of instructions fetched each cycle (Total)
system.switch_cpus3.fetch.nisnDist::5         3252722      3.27%     42.21% # Number of instructions fetched each cycle (Total)
system.switch_cpus3.fetch.nisnDist::6         8519091      8.57%     50.78% # Number of instructions fetched each cycle (Total)
system.switch_cpus3.fetch.nisnDist::7         3954727      3.98%     54.76% # Number of instructions fetched each cycle (Total)
system.switch_cpus3.fetch.nisnDist::8        44970759     45.24%    100.00% # Number of instructions fetched each cycle (Total)
system.switch_cpus3.fetch.nisnDist::overflows            0      0.00%    100.00% # Number of instructions fetched each cycle (Total)
system.switch_cpus3.fetch.nisnDist::min_value            0                       # Number of instructions fetched each cycle (Total)
system.switch_cpus3.fetch.nisnDist::max_value            8                       # Number of instructions fetched each cycle (Total)
system.switch_cpus3.fetch.nisnDist::total     99403915                       # Number of instructions fetched each cycle (Total)
system.switch_cpus3.fetch.branchRate         0.527443                       # Number of branch fetches per cycle
system.switch_cpus3.fetch.rate               2.963966                       # Number of inst fetches per cycle
system.switch_cpus3.itb.rdAccesses                  0                       # TLB accesses on read requests
system.switch_cpus3.itb.wrAccesses           45451498                       # TLB accesses on write requests
system.switch_cpus3.itb.rdMisses                    0                       # TLB misses on read requests
system.switch_cpus3.itb.wrMisses                  127                       # TLB misses on write requests
system.switch_cpus3.itb.walker.power_state.pwrStateResidencyTicks::UNDEFINED 17928131693562                       # Cumulative time (in ticks) in various power states
system.switch_cpus3.lsq0.forwLoads           18298589                       # Number of loads that had data forwarded from stores
system.switch_cpus3.lsq0.squashedLoads       11160715                       # Number of loads squashed
system.switch_cpus3.lsq0.ignoredResponses         8680                       # Number of memory responses ignored because the instruction is squashed
system.switch_cpus3.lsq0.memOrderViolation        17488                       # Number of memory ordering violations
system.switch_cpus3.lsq0.squashedStores       4982970                       # Number of stores squashed
system.switch_cpus3.lsq0.rescheduledLoads        60159                       # Number of loads that were rescheduled
system.switch_cpus3.lsq0.blockedByCache             0                       # Number of times an access to memory failed due to the cache being blocked
system.switch_cpus3.power_state.pwrStateResidencyTicks::OFF  33126113394                       # Cumulative time (in ticks) in various power states
system.switch_cpus3.rename.squashCycles        993383                       # Number of cycles rename is squashing
system.switch_cpus3.rename.idleCycles         8891416                       # Number of cycles rename is idle
system.switch_cpus3.rename.blockCycles        6439252                       # Number of cycles rename is blocking
system.switch_cpus3.rename.serializeStallCycles         1338                       # count of cycles rename stalledfor serializing inst
system.switch_cpus3.rename.runCycles         74365735                       # Number of cycles rename is running
system.switch_cpus3.rename.unblockCycles      8712777                       # Number of cycles rename is unblocking
system.switch_cpus3.rename.renamedInsts     514581486                       # Number of instructions processed by rename
system.switch_cpus3.rename.ROBFullEvents        42371                       # Number of times rename has blocked due to ROB full
system.switch_cpus3.rename.IQFullEvents       2378479                       # Number of times rename has blocked due to IQ full
system.switch_cpus3.rename.LQFullEvents       1800326                       # Number of times rename has blocked due to LQ full
system.switch_cpus3.rename.SQFullEvents       3017637                       # Number of times rename has blocked due to SQ full
system.switch_cpus3.rename.renamedOperands    520561323                       # Number of destination operands rename has renamed
system.switch_cpus3.rename.lookups         1355569067                       # Number of register rename lookups that rename has made
system.switch_cpus3.rename.intLookups       719999300                       # Number of integer rename lookups
system.switch_cpus3.rename.fpLookups        157123857                       # Number of floating rename lookups
system.switch_cpus3.rename.committedMaps    455220384                       # Number of HB maps that are committed
system.switch_cpus3.rename.undoneMaps        65340866                       # Number of HB maps that are undone due to squashing
system.switch_cpus3.rename.serializing              3                       # count of serializing insts renamed
system.switch_cpus3.rename.tempSerializing            3                       # count of temporary serializing insts renamed
system.switch_cpus3.rename.skidInsts         23167809                       # count of insts added to the skid buffer
system.switch_cpus3.rob.reads               552976271                       # The number of ROB reads
system.switch_cpus3.rob.writes             1011468496                       # The number of ROB writes
system.switch_cpus3.thread0.numInsts        249995801                       # Number of Instructions committed
system.switch_cpus3.thread0.numOps          450492014                       # Number of Ops committed
system.switch_cpus3.thread0.numMemRefs              0                       # Number of Memory References
system.voltage_domain.voltage                       1                       # Voltage in Volts

---------- End Simulation Statistics   ----------
