Command line:
./runscript_pride.sh mix19 RFM10.BR2.4C 4 2017 --rh_defense --rh_mitigation=RFM --rh_rfm_per_trefi=10 --rh_rfm_blast_radius=2 --rh_rfm_maxacts_per_trefi=79
Global frequency set at 1000000000000 ticks per second
RFM details - rfm_act_threshold: 7, blast_radius: 2, delay_per_rfm: 175000 ps. sample_rate: 0.125000
RH Defense config: RFM, Bus Delay: 0, rfms_per_trefi: 10, rfm_act_threshold: 7, blast_radius: 2,rfm_delay_per_act: 45000 ps.
DRAM config: RowsPerBank: 65536, BanksPerRank: 32, RanksPerChannel: 1
warn: Sockets disabled, not accepting gdb connections
warn: CoherentXBar system.cpu0.mmucache.mmubus has no snooping ports attached!
warn: CoherentXBar system.cpu1.mmucache.mmubus has no snooping ports attached!
warn: CoherentXBar system.cpu2.mmucache.mmubus has no snooping ports attached!
warn: CoherentXBar system.cpu3.mmucache.mmubus has no snooping ports attached!
warn: Checkpoints for file descriptors currently do not work.
warn: Checkpoints for file descriptors currently do not work.
warn: Checkpoints for file descriptors currently do not work.
warn: Checkpoints for file descriptors currently do not work.
gem5 Simulator System.  http://gem5.org
gem5 is copyrighted software; use the --copyright option for details.

gem5 version 20.1.0.5
gem5 compiled Jul 12 2024 12:42:38
gem5 started Jul 22 2024 19:04:38
gem5 executing on a07dda8b130c, pid 90068
command line: /home/user/PrIDE/performance/gem5/build/X86/gem5.opt --outdir=/home/user/PrIDE/performance/gem5/stats/pride_multiprogram_16GBmem_250Mn.SPEC2017.C4/RFM10.BR2.4C/mix19 /home/user/PrIDE/performance/gem5/configs/example/se_rq_spec_config_multicore.py --redirects /lib64=/home/utils/gcc-6.2.0/lib64 --benchmark=mix19 --benchmark_stdout=/home/user/PrIDE/performance/gem5/stats/pride_multiprogram_16GBmem_250Mn.SPEC2017.C4/RFM10.BR2.4C/mix19/mix19.out --benchmark_stderr=/home/user/PrIDE/performance/gem5/stats/pride_multiprogram_16GBmem_250Mn.SPEC2017.C4/RFM10.BR2.4C/mix19/mix19.err --spec-version=2017 --rh_defense --rh_mitigation=RFM --rh_rfm_per_trefi=10 --rh_rfm_blast_radius=2 --rh_rfm_maxacts_per_trefi=79 --num-cpus=4 --mem-size=16GB --mem-type=DDR5_2400_32x4 --mem-ranks=1 --checkpoint-dir=/home/user/PrIDE/performance/gem5/cpts/multiprogram_16GBmem_25Bn.SPEC2017.C4/mix19-1-ref-x86 --checkpoint-restore=25000000000 --at-instruction --cpu-type DerivO3CPU --caches --l2cache --l1d_size=32kB --l1i_size=32kB --l2_size=256kB --l1d_assoc=8 --l1i_assoc=8 --l2_assoc=16 --maxinsts=250000000 --prog-interval=300Hz

info: Standard input is not a terminal, disabling listeners.
Benchmark- 0   cactuBSSN
Selected benchmark
--> cactuBSSN
CMD: ['/opt/spec2017/benchspec/CPU/507.cactuBSSN_r/run/run_base_refrate_gem5_se-m64.0000/cactusBSSN_r_base.gem5_se-m64', '/opt/spec2017/benchspec/CPU/507.cactuBSSN_r/run/run_base_refrate_gem5_se-m64.0000/spec_ref.par']
CWD: /opt/spec2017/benchspec/CPU/507.cactuBSSN_r/run/run_base_refrate_gem5_se-m64.0000/
Process stdout file: /home/user/PrIDE/performance/gem5/stats/pride_multiprogram_16GBmem_250Mn.SPEC2017.C4/RFM10.BR2.4C/mix19/mix19.out_0
Process stderr file: /home/user/PrIDE/performance/gem5/stats/pride_multiprogram_16GBmem_250Mn.SPEC2017.C4/RFM10.BR2.4C/mix19/mix19.err_0
Benchmark- 1   mcf
Selected benchmark
--> mcf
CMD: ['/opt/spec2017/benchspec/CPU/505.mcf_r/run/run_base_refrate_gem5_se-m64.0000/mcf_r_base.gem5_se-m64', '/opt/spec2017/benchspec/CPU/505.mcf_r/run/run_base_refrate_gem5_se-m64.0000/inp.in']
CWD: /opt/spec2017/benchspec/CPU/505.mcf_r/run/run_base_refrate_gem5_se-m64.0000/
Process stdout file: /home/user/PrIDE/performance/gem5/stats/pride_multiprogram_16GBmem_250Mn.SPEC2017.C4/RFM10.BR2.4C/mix19/mix19.out_1
Process stderr file: /home/user/PrIDE/performance/gem5/stats/pride_multiprogram_16GBmem_250Mn.SPEC2017.C4/RFM10.BR2.4C/mix19/mix19.err_1
Benchmark- 2   x264
Selected benchmark
--> x264
CMD: ['/opt/spec2017/benchspec/CPU/525.x264_r/run/run_base_refrate_gem5_se-m64.0000/x264_r_base.gem5_se-m64', '--pass', '1', '--stats', '/opt/spec2017/benchspec/CPU/525.x264_r/run/run_base_refrate_gem5_se-m64.0000/x264_stats.log', '--bitrate', '1000', '--frames', '1000', '-o', '/opt/spec2017/benchspec/CPU/525.x264_r/run/run_base_refrate_gem5_se-m64.0000/BuckBunny_New.264', '/opt/spec2017/benchspec/CPU/525.x264_r/run/run_base_refrate_gem5_se-m64.0000/BuckBunny.yuv', '1280x720']
CWD: /opt/spec2017/benchspec/CPU/525.x264_r/run/run_base_refrate_gem5_se-m64.0000/
Process stdout file: /home/user/PrIDE/performance/gem5/stats/pride_multiprogram_16GBmem_250Mn.SPEC2017.C4/RFM10.BR2.4C/mix19/mix19.out_2
Process stderr file: /home/user/PrIDE/performance/gem5/stats/pride_multiprogram_16GBmem_250Mn.SPEC2017.C4/RFM10.BR2.4C/mix19/mix19.err_2
Benchmark- 3   exchange2
Selected benchmark
--> exchange2
CMD: ['/opt/spec2017/benchspec/CPU/548.exchange2_r/run/run_base_refrate_gem5_se-m64.0000/exchange2_r_base.gem5_se-m64', '6']
CWD: /opt/spec2017/benchspec/CPU/548.exchange2_r/run/run_base_refrate_gem5_se-m64.0000/
Process stdout file: /home/user/PrIDE/performance/gem5/stats/pride_multiprogram_16GBmem_250Mn.SPEC2017.C4/RFM10.BR2.4C/mix19/mix19.out_3
Process stderr file: /home/user/PrIDE/performance/gem5/stats/pride_multiprogram_16GBmem_250Mn.SPEC2017.C4/RFM10.BR2.4C/mix19/mix19.err_3
Workload-0: 
['/opt/spec2017/benchspec/CPU/507.cactuBSSN_r/run/run_base_refrate_gem5_se-m64.0000/cactusBSSN_r_base.gem5_se-m64', '/opt/spec2017/benchspec/CPU/507.cactuBSSN_r/run/run_base_refrate_gem5_se-m64.0000/spec_ref.par']
Workload-1: 
['/opt/spec2017/benchspec/CPU/505.mcf_r/run/run_base_refrate_gem5_se-m64.0000/mcf_r_base.gem5_se-m64', '/opt/spec2017/benchspec/CPU/505.mcf_r/run/run_base_refrate_gem5_se-m64.0000/inp.in']
Workload-2: 
['/opt/spec2017/benchspec/CPU/525.x264_r/run/run_base_refrate_gem5_se-m64.0000/x264_r_base.gem5_se-m64', '--pass', '1', '--stats', '/opt/spec2017/benchspec/CPU/525.x264_r/run/run_base_refrate_gem5_se-m64.0000/x264_stats.log', '--bitrate', '1000', '--frames', '1000', '-o', '/opt/spec2017/benchspec/CPU/525.x264_r/run/run_base_refrate_gem5_se-m64.0000/BuckBunny_New.264', '/opt/spec2017/benchspec/CPU/525.x264_r/run/run_base_refrate_gem5_se-m64.0000/BuckBunny.yuv', '1280x720']
Workload-3: 
['/opt/spec2017/benchspec/CPU/548.exchange2_r/run/run_base_refrate_gem5_se-m64.0000/exchange2_r_base.gem5_se-m64', '6']
defense_enable:  True  detector:  MG  mitigation:  RFM  threshold:  800
mg_entries:  1700
rfm_maxacts_per_trefi:  79 rfm_per_trefi:  10 rfm_blast_radius:  2
Switch at curTick count:10000
warn: membus.master is deprecated. `master` is now called `mem_side_ports`
warn: No dot file generated. Please install pydot to generate the dot file and pdf.
info: Entering event queue @ 14022978860457.  Starting simulation...
info: Entering event queue @ 14022978870457.  Starting simulation...
warn: PowerState: Already in the requested power state, request ignored
Switched CPUS @ tick 14022978870457
switching cpus
**** REAL SIMULATION ****
info: Entering event queue @ 14022978871113.  Starting simulation...
14026312193790: Event_285: system.switch_cpus3 progress event, total committed:39120928, progress insts committed: 39120928, IPC: 03.90818
14026312193790: Event_284: system.switch_cpus2 progress event, total committed:24588297, progress insts committed: 24588297, IPC: 02.45637
14026312193790: Event_283: system.switch_cpus1 progress event, total committed:11515665, progress insts committed: 11515665, IPC: 01.15041
14026312193790: Event_282: system.switch_cpus0 progress event, total committed:7321172, progress insts committed: 7321172, IPC: 0.731385
14029645527123: Event_282: system.switch_cpus0 progress event, total committed:14899991, progress insts committed: 7578819, IPC: 0.757124
14029645527123: Event_283: system.switch_cpus1 progress event, total committed:24401355, progress insts committed: 12885690, IPC: 01.28728
14029645527123: Event_284: system.switch_cpus2 progress event, total committed:49419786, progress insts committed: 24831489, IPC: 02.48067
14029645527123: Event_285: system.switch_cpus3 progress event, total committed:80341449, progress insts committed: 41220521, IPC: 04.11793
14032978860456: Event_285: system.switch_cpus3 progress event, total committed:116252897, progress insts committed: 35911448, IPC: 03.58755
14032978860456: Event_284: system.switch_cpus2 progress event, total committed:75521714, progress insts committed: 26101928, IPC: 02.60758
14032978860456: Event_283: system.switch_cpus1 progress event, total committed:36882666, progress insts committed: 12481311, IPC: 01.24688
14032978860456: Event_282: system.switch_cpus0 progress event, total committed:22491707, progress insts committed: 7591716, IPC: 0.758412
14036312193789: Event_282: system.switch_cpus0 progress event, total committed:30081631, progress insts committed: 7589924, IPC: 0.758233
14036312193789: Event_283: system.switch_cpus1 progress event, total committed:49883784, progress insts committed: 13001118, IPC: 01.29881
14036312193789: Event_284: system.switch_cpus2 progress event, total committed:100819653, progress insts committed: 25297939, IPC: 02.52726
14036312193789: Event_285: system.switch_cpus3 progress event, total committed:150604527, progress insts committed: 34351630, IPC: 03.43173
14039645527122: Event_285: system.switch_cpus3 progress event, total committed:183932584, progress insts committed: 33328057, IPC: 03.32947
14039645527122: Event_284: system.switch_cpus2 progress event, total committed:123652045, progress insts committed: 22832392, IPC: 02.28096
14039645527122: Event_283: system.switch_cpus1 progress event, total committed:62282674, progress insts committed: 12398890, IPC: 01.23865
14039645527122: Event_282: system.switch_cpus0 progress event, total committed:37593607, progress insts committed: 7511976, IPC: 0.750446
14042978860455: Event_282: system.switch_cpus0 progress event, total committed:45189248, progress insts committed: 7595641, IPC: 0.758805
14042978860455: Event_283: system.switch_cpus1 progress event, total committed:75023230, progress insts committed: 12740556, IPC: 01.27278
14042978860455: Event_284: system.switch_cpus2 progress event, total committed:149392219, progress insts committed: 25740174, IPC: 02.57144
14042978860455: Event_285: system.switch_cpus3 progress event, total committed:215835004, progress insts committed: 31902420, IPC: 03.18705
14046312193788: Event_285: system.switch_cpus3 progress event, total committed:250415599, progress insts committed: 34580595, IPC: 003.4546
14046312193788: Event_284: system.switch_cpus2 progress event, total committed:174476329, progress insts committed: 25084110, IPC: 002.5059
14046312193788: Event_283: system.switch_cpus1 progress event, total committed:87961010, progress insts committed: 12937780, IPC: 01.29248
14046312193788: Event_282: system.switch_cpus0 progress event, total committed:52773645, progress insts committed: 7584397, IPC: 0.757681
14049645527121: Event_282: system.switch_cpus0 progress event, total committed:60321058, progress insts committed: 7547413, IPC: 0.753987
14049645527121: Event_283: system.switch_cpus1 progress event, total committed:100410627, progress insts committed: 12449617, IPC: 01.24372
14049645527121: Event_284: system.switch_cpus2 progress event, total committed:199052917, progress insts committed: 24576588, IPC: 002.4552
14049645527121: Event_285: system.switch_cpus3 progress event, total committed:285570715, progress insts committed: 35155116, IPC: 0003.512
14052978860454: Event_285: system.switch_cpus3 progress event, total committed:321862550, progress insts committed: 36291835, IPC: 03.62555
14052978860454: Event_284: system.switch_cpus2 progress event, total committed:220776363, progress insts committed: 21723446, IPC: 02.17017
14052978860454: Event_283: system.switch_cpus1 progress event, total committed:113320360, progress insts committed: 12909733, IPC: 01.28968
14052978860454: Event_282: system.switch_cpus0 progress event, total committed:67934301, progress insts committed: 7613243, IPC: 0.760563
14056312193787: Event_282: system.switch_cpus0 progress event, total committed:75467880, progress insts committed: 7533579, IPC: 0.752605
14056312193787: Event_283: system.switch_cpus1 progress event, total committed:126017649, progress insts committed: 12697289, IPC: 01.26846
14056312193787: Event_284: system.switch_cpus2 progress event, total committed:241977505, progress insts committed: 21201142, IPC: 02.11799
14056312193787: Event_285: system.switch_cpus3 progress event, total committed:357067706, progress insts committed: 35205156, IPC: 0003.517
14059645527120: Event_285: system.switch_cpus3 progress event, total committed:396239505, progress insts committed: 39171799, IPC: 03.91326
14059645527120: Event_284: system.switch_cpus2 progress event, total committed:262569139, progress insts committed: 20591634, IPC: 002.0571
14059645527120: Event_283: system.switch_cpus1 progress event, total committed:138373120, progress insts committed: 12355471, IPC: 01.23431
14059645527120: Event_282: system.switch_cpus0 progress event, total committed:82970359, progress insts committed: 7502479, IPC: 0.749498
14062978860453: Event_282: system.switch_cpus0 progress event, total committed:90543887, progress insts committed: 7573528, IPC: 0.756595
14062978860453: Event_283: system.switch_cpus1 progress event, total committed:151496950, progress insts committed: 13123830, IPC: 01.31107
14062978860453: Event_284: system.switch_cpus2 progress event, total committed:283621032, progress insts committed: 21051893, IPC: 02.10308
14062978860453: Event_285: system.switch_cpus3 progress event, total committed:434083277, progress insts committed: 37843772, IPC: 03.78059
14066312193786: Event_285: system.switch_cpus3 progress event, total committed:474289744, progress insts committed: 40206467, IPC: 04.01663
14066312193786: Event_284: system.switch_cpus2 progress event, total committed:305991228, progress insts committed: 22370196, IPC: 02.23478
14066312193786: Event_283: system.switch_cpus1 progress event, total committed:163891400, progress insts committed: 12394450, IPC: 01.23821
14066312193786: Event_282: system.switch_cpus0 progress event, total committed:98132689, progress insts committed: 7588802, IPC: 0.758121
Exiting @ tick 14067256179816 because a thread reached the max instruction count
