Command line:
./runscript_pride.sh leela RFM5.BR1.4C 4 2017 --rh_defense --rh_mitigation=RFM --rh_rfm_per_trefi=5 --rh_rfm_blast_radius=1 --rh_rfm_maxacts_per_trefi=79
Global frequency set at 1000000000000 ticks per second
RFM details - rfm_act_threshold: 15, blast_radius: 1, delay_per_rfm: 175000 ps. sample_rate: 0.062500
RH Defense config: RFM, Bus Delay: 0, rfms_per_trefi: 5, rfm_act_threshold: 15, blast_radius: 1,rfm_delay_per_act: 45000 ps.
DRAM config: RowsPerBank: 65536, BanksPerRank: 32, RanksPerChannel: 1
warn: Sockets disabled, not accepting gdb connections
warn: CoherentXBar system.cpu0.mmucache.mmubus has no snooping ports attached!
warn: CoherentXBar system.cpu1.mmucache.mmubus has no snooping ports attached!
warn: CoherentXBar system.cpu2.mmucache.mmubus has no snooping ports attached!
warn: CoherentXBar system.cpu3.mmucache.mmubus has no snooping ports attached!
warn: Checkpoints for file descriptors currently do not work.
warn: Checkpoints for file descriptors currently do not work.
warn: Checkpoints for file descriptors currently do not work.
warn: Checkpoints for file descriptors currently do not work.
gem5 Simulator System.  http://gem5.org
gem5 is copyrighted software; use the --copyright option for details.

gem5 version 20.1.0.5
gem5 compiled Jul 12 2024 12:42:38
gem5 started Jul 31 2024 17:58:01
gem5 executing on a07dda8b130c, pid 241742
command line: /home/user/PrIDE/performance/gem5/build/X86/gem5.opt --outdir=/home/user/PrIDE/performance/gem5/stats/pride_multiprogram_16GBmem_250Mn.SPEC2017.C4/RFM5.BR1.4C/leela /home/user/PrIDE/performance/gem5/configs/example/se_rq_spec_config_multicore.py --redirects /lib64=/home/utils/gcc-6.2.0/lib64 --benchmark=leela --benchmark_stdout=/home/user/PrIDE/performance/gem5/stats/pride_multiprogram_16GBmem_250Mn.SPEC2017.C4/RFM5.BR1.4C/leela/leela.out --benchmark_stderr=/home/user/PrIDE/performance/gem5/stats/pride_multiprogram_16GBmem_250Mn.SPEC2017.C4/RFM5.BR1.4C/leela/leela.err --spec-version=2017 --rh_defense --rh_mitigation=RFM --rh_rfm_per_trefi=5 --rh_rfm_blast_radius=1 --rh_rfm_maxacts_per_trefi=79 --num-cpus=4 --mem-size=16GB --mem-type=DDR5_2400_32x4 --mem-ranks=1 --mem-channels=1 --checkpoint-dir=/home/user/PrIDE/performance/gem5/cpts-DDR5/multiprogram_16GBmem_25Bn.SPEC2017.C4/leela-1-ref-x86 --checkpoint-restore=25000000000 --at-instruction --cpu-type DerivO3CPU --caches --l2cache --l1d_size=32kB --l1i_size=32kB --l2_size=256kB --l3_size=4MB --l1d_assoc=8 --l1i_assoc=8 --l2_assoc=16 --l3_assoc=16 --cpu-clock=3GHz --sys-clock=3GHz --maxinsts=250000000 --prog-interval=300Hz

info: Standard input is not a terminal, disabling listeners.
Benchmark- 0   leela
Selected benchmark
--> leela
CMD: ['/opt/spec2017/benchspec/CPU/541.leela_r/run/run_base_refrate_gem5_se-m64.0000/leela_r_base.gem5_se-m64', '/opt/spec2017/benchspec/CPU/541.leela_r/run/run_base_refrate_gem5_se-m64.0000/ref.sgf']
CWD: /opt/spec2017/benchspec/CPU/541.leela_r/run/run_base_refrate_gem5_se-m64.0000/
Process stdout file: /home/user/PrIDE/performance/gem5/stats/pride_multiprogram_16GBmem_250Mn.SPEC2017.C4/RFM5.BR1.4C/leela/leela.out_0
Process stderr file: /home/user/PrIDE/performance/gem5/stats/pride_multiprogram_16GBmem_250Mn.SPEC2017.C4/RFM5.BR1.4C/leela/leela.err_0
Benchmark- 1   leela
Selected benchmark
--> leela
CMD: ['/opt/spec2017/benchspec/CPU/541.leela_r/run/run_base_refrate_gem5_se-m64.0000/leela_r_base.gem5_se-m64', '/opt/spec2017/benchspec/CPU/541.leela_r/run/run_base_refrate_gem5_se-m64.0000/ref.sgf']
CWD: /opt/spec2017/benchspec/CPU/541.leela_r/run/run_base_refrate_gem5_se-m64.0000/
Process stdout file: /home/user/PrIDE/performance/gem5/stats/pride_multiprogram_16GBmem_250Mn.SPEC2017.C4/RFM5.BR1.4C/leela/leela.out_1
Process stderr file: /home/user/PrIDE/performance/gem5/stats/pride_multiprogram_16GBmem_250Mn.SPEC2017.C4/RFM5.BR1.4C/leela/leela.err_1
Benchmark- 2   leela
Selected benchmark
--> leela
CMD: ['/opt/spec2017/benchspec/CPU/541.leela_r/run/run_base_refrate_gem5_se-m64.0000/leela_r_base.gem5_se-m64', '/opt/spec2017/benchspec/CPU/541.leela_r/run/run_base_refrate_gem5_se-m64.0000/ref.sgf']
CWD: /opt/spec2017/benchspec/CPU/541.leela_r/run/run_base_refrate_gem5_se-m64.0000/
Process stdout file: /home/user/PrIDE/performance/gem5/stats/pride_multiprogram_16GBmem_250Mn.SPEC2017.C4/RFM5.BR1.4C/leela/leela.out_2
Process stderr file: /home/user/PrIDE/performance/gem5/stats/pride_multiprogram_16GBmem_250Mn.SPEC2017.C4/RFM5.BR1.4C/leela/leela.err_2
Benchmark- 3   leela
Selected benchmark
--> leela
CMD: ['/opt/spec2017/benchspec/CPU/541.leela_r/run/run_base_refrate_gem5_se-m64.0000/leela_r_base.gem5_se-m64', '/opt/spec2017/benchspec/CPU/541.leela_r/run/run_base_refrate_gem5_se-m64.0000/ref.sgf']
CWD: /opt/spec2017/benchspec/CPU/541.leela_r/run/run_base_refrate_gem5_se-m64.0000/
Process stdout file: /home/user/PrIDE/performance/gem5/stats/pride_multiprogram_16GBmem_250Mn.SPEC2017.C4/RFM5.BR1.4C/leela/leela.out_3
Process stderr file: /home/user/PrIDE/performance/gem5/stats/pride_multiprogram_16GBmem_250Mn.SPEC2017.C4/RFM5.BR1.4C/leela/leela.err_3
Workload-0: 
['/opt/spec2017/benchspec/CPU/541.leela_r/run/run_base_refrate_gem5_se-m64.0000/leela_r_base.gem5_se-m64', '/opt/spec2017/benchspec/CPU/541.leela_r/run/run_base_refrate_gem5_se-m64.0000/ref.sgf']
Workload-1: 
['/opt/spec2017/benchspec/CPU/541.leela_r/run/run_base_refrate_gem5_se-m64.0000/leela_r_base.gem5_se-m64', '/opt/spec2017/benchspec/CPU/541.leela_r/run/run_base_refrate_gem5_se-m64.0000/ref.sgf']
Workload-2: 
['/opt/spec2017/benchspec/CPU/541.leela_r/run/run_base_refrate_gem5_se-m64.0000/leela_r_base.gem5_se-m64', '/opt/spec2017/benchspec/CPU/541.leela_r/run/run_base_refrate_gem5_se-m64.0000/ref.sgf']
Workload-3: 
['/opt/spec2017/benchspec/CPU/541.leela_r/run/run_base_refrate_gem5_se-m64.0000/leela_r_base.gem5_se-m64', '/opt/spec2017/benchspec/CPU/541.leela_r/run/run_base_refrate_gem5_se-m64.0000/ref.sgf']
defense_enable:  True  detector:  MG  mitigation:  RFM  threshold:  800
mg_entries:  1700
rfm_maxacts_per_trefi:  79 rfm_per_trefi:  5 rfm_blast_radius:  1
Switch at curTick count:10000
warn: membus.master is deprecated. `master` is now called `mem_side_ports`
warn: No dot file generated. Please install pydot to generate the dot file and pdf.
info: Entering event queue @ 18573644891205.  Starting simulation...
info: Entering event queue @ 18573644901205.  Starting simulation...
warn: PowerState: Already in the requested power state, request ignored
Switched CPUS @ tick 18573644901205
switching cpus
**** REAL SIMULATION ****
info: Entering event queue @ 18573644901528.  Starting simulation...
warn: MOVNTDQ: Ignoring non-temporal hint, modeling as cacheable!
18576978224538: Event_285: system.switch_cpus3 progress event, total committed:18616612, progress insts committed: 18616612, IPC: 001.8598
18576978224538: Event_284: system.switch_cpus2 progress event, total committed:18616675, progress insts committed: 18616675, IPC: 01.85981
18576978224538: Event_283: system.switch_cpus1 progress event, total committed:18616459, progress insts committed: 18616459, IPC: 01.85978
18576978224538: Event_282: system.switch_cpus0 progress event, total committed:18616476, progress insts committed: 18616476, IPC: 01.85979
18580311557871: Event_282: system.switch_cpus0 progress event, total committed:38331539, progress insts committed: 19715063, IPC: 01.96953
18580311557871: Event_283: system.switch_cpus1 progress event, total committed:38331456, progress insts committed: 19714997, IPC: 01.96953
18580311557871: Event_284: system.switch_cpus2 progress event, total committed:38333701, progress insts committed: 19717026, IPC: 01.96973
18580311557871: Event_285: system.switch_cpus3 progress event, total committed:38333828, progress insts committed: 19717216, IPC: 01.96975
18583644891204: Event_285: system.switch_cpus3 progress event, total committed:58110523, progress insts committed: 19776695, IPC: 01.97569
18583644891204: Event_284: system.switch_cpus2 progress event, total committed:58110514, progress insts committed: 19776813, IPC: 001.9757
18583644891204: Event_283: system.switch_cpus1 progress event, total committed:58110544, progress insts committed: 19779088, IPC: 01.97593
18583644891204: Event_282: system.switch_cpus0 progress event, total committed:58110519, progress insts committed: 19778980, IPC: 01.97592
18586978224537: Event_282: system.switch_cpus0 progress event, total committed:77982455, progress insts committed: 19871936, IPC: 01.98521
18586978224537: Event_283: system.switch_cpus1 progress event, total committed:77982484, progress insts committed: 19871940, IPC: 01.98521
18586978224537: Event_284: system.switch_cpus2 progress event, total committed:77976394, progress insts committed: 19865880, IPC: 001.9846
18586978224537: Event_285: system.switch_cpus3 progress event, total committed:77976414, progress insts committed: 19865891, IPC: 001.9846
18590311557870: Event_285: system.switch_cpus3 progress event, total committed:97991064, progress insts committed: 20014650, IPC: 01.99946
18590311557870: Event_284: system.switch_cpus2 progress event, total committed:97991064, progress insts committed: 20014670, IPC: 01.99947
18590311557870: Event_283: system.switch_cpus1 progress event, total committed:97994881, progress insts committed: 20012397, IPC: 01.99924
18590311557870: Event_282: system.switch_cpus0 progress event, total committed:97994955, progress insts committed: 20012500, IPC: 01.99925
18593644891203: Event_282: system.switch_cpus0 progress event, total committed:115036816, progress insts committed: 17041861, IPC: 01.70248
18593644891203: Event_283: system.switch_cpus1 progress event, total committed:115041146, progress insts committed: 17046265, IPC: 01.70292
18593644891203: Event_284: system.switch_cpus2 progress event, total committed:115041096, progress insts committed: 17050032, IPC: 001.7033
18593644891203: Event_285: system.switch_cpus3 progress event, total committed:115040907, progress insts committed: 17049843, IPC: 01.70328
18596978224536: Event_285: system.switch_cpus3 progress event, total committed:135030103, progress insts committed: 19989196, IPC: 01.99692
18596978224536: Event_284: system.switch_cpus2 progress event, total committed:135017069, progress insts committed: 19975973, IPC: 001.9956
18596978224536: Event_283: system.switch_cpus1 progress event, total committed:135016592, progress insts committed: 19975446, IPC: 01.99555
18596978224536: Event_282: system.switch_cpus0 progress event, total committed:135016583, progress insts committed: 19979767, IPC: 01.99598
18600311557869: Event_282: system.switch_cpus0 progress event, total committed:154855912, progress insts committed: 19839329, IPC: 01.98195
18600311557869: Event_283: system.switch_cpus1 progress event, total committed:154859364, progress insts committed: 19842772, IPC: 01.98229
18600311557869: Event_284: system.switch_cpus2 progress event, total committed:154873516, progress insts committed: 19856447, IPC: 01.98366
18600311557869: Event_285: system.switch_cpus3 progress event, total committed:154877017, progress insts committed: 19846914, IPC: 01.98271
18603644891202: Event_285: system.switch_cpus3 progress event, total committed:174852567, progress insts committed: 19975550, IPC: 01.99556
18603644891202: Event_284: system.switch_cpus2 progress event, total committed:174857136, progress insts committed: 19983620, IPC: 01.99636
18603644891202: Event_283: system.switch_cpus1 progress event, total committed:174828126, progress insts committed: 19968762, IPC: 01.99488
18603644891202: Event_282: system.switch_cpus0 progress event, total committed:174827863, progress insts committed: 19971951, IPC: 001.9952
18606978224535: Event_282: system.switch_cpus0 progress event, total committed:194772442, progress insts committed: 19944579, IPC: 01.99246
18606978224535: Event_283: system.switch_cpus1 progress event, total committed:194772438, progress insts committed: 19944312, IPC: 01.99244
18606978224535: Event_284: system.switch_cpus2 progress event, total committed:194804481, progress insts committed: 19947345, IPC: 01.99274
18606978224535: Event_285: system.switch_cpus3 progress event, total committed:194796249, progress insts committed: 19943682, IPC: 01.99237
18610311557868: Event_285: system.switch_cpus3 progress event, total committed:214669090, progress insts committed: 19872841, IPC: 001.9853
18610311557868: Event_284: system.switch_cpus2 progress event, total committed:214673385, progress insts committed: 19868904, IPC: 001.9849
18610311557868: Event_283: system.switch_cpus1 progress event, total committed:214640303, progress insts committed: 19867865, IPC: 001.9848
18610311557868: Event_282: system.switch_cpus0 progress event, total committed:214640279, progress insts committed: 19867837, IPC: 001.9848
18613644891201: Event_282: system.switch_cpus0 progress event, total committed:234629037, progress insts committed: 19988758, IPC: 01.99688
18613644891201: Event_283: system.switch_cpus1 progress event, total committed:234629143, progress insts committed: 19988840, IPC: 01.99689
18613644891201: Event_284: system.switch_cpus2 progress event, total committed:234665092, progress insts committed: 19991707, IPC: 01.99717
18613644891201: Event_285: system.switch_cpus3 progress event, total committed:234661051, progress insts committed: 19991961, IPC: 001.9972
18616978224534: Event_285: system.switch_cpus3 progress event, total committed:254730283, progress insts committed: 20069232, IPC: 02.00492
18616978224534: Event_284: system.switch_cpus2 progress event, total committed:254728307, progress insts committed: 20063215, IPC: 02.00432
18616978224534: Event_283: system.switch_cpus1 progress event, total committed:254693356, progress insts committed: 20064213, IPC: 02.00441
18616978224534: Event_282: system.switch_cpus0 progress event, total committed:254692893, progress insts committed: 20063856, IPC: 02.00438
18620311557867: Event_282: system.switch_cpus0 progress event, total committed:274618006, progress insts committed: 19925113, IPC: 01.99052
18620311557867: Event_283: system.switch_cpus1 progress event, total committed:274618657, progress insts committed: 19925301, IPC: 01.99054
18620311557867: Event_284: system.switch_cpus2 progress event, total committed:274645724, progress insts committed: 19917417, IPC: 01.98975
18620311557867: Event_285: system.switch_cpus3 progress event, total committed:274647164, progress insts committed: 19916881, IPC: 001.9897
18623644891200: Event_285: system.switch_cpus3 progress event, total committed:294623712, progress insts committed: 19976548, IPC: 01.99566
18623644891200: Event_284: system.switch_cpus2 progress event, total committed:294620414, progress insts committed: 19974690, IPC: 01.99547
18623644891200: Event_283: system.switch_cpus1 progress event, total committed:294595012, progress insts committed: 19976355, IPC: 01.99564
18623644891200: Event_282: system.switch_cpus0 progress event, total committed:294596149, progress insts committed: 19978143, IPC: 01.99582
18626978224533: Event_282: system.switch_cpus0 progress event, total committed:314603505, progress insts committed: 20007356, IPC: 01.99873
18626978224533: Event_283: system.switch_cpus1 progress event, total committed:314587317, progress insts committed: 19992305, IPC: 01.99723
18626978224533: Event_284: system.switch_cpus2 progress event, total committed:314624075, progress insts committed: 20003661, IPC: 01.99837
18626978224533: Event_285: system.switch_cpus3 progress event, total committed:314627400, progress insts committed: 20003688, IPC: 01.99837
18630311557866: Event_285: system.switch_cpus3 progress event, total committed:334516717, progress insts committed: 19889317, IPC: 01.98694
18630311557866: Event_284: system.switch_cpus2 progress event, total committed:334506455, progress insts committed: 19882380, IPC: 01.98625
18630311557866: Event_283: system.switch_cpus1 progress event, total committed:334484202, progress insts committed: 19896885, IPC: 001.9877
18630311557866: Event_282: system.switch_cpus0 progress event, total committed:334485387, progress insts committed: 19881882, IPC: 001.9862
18633644891199: Event_282: system.switch_cpus0 progress event, total committed:354446823, progress insts committed: 19961436, IPC: 01.99415
18633644891199: Event_283: system.switch_cpus1 progress event, total committed:354444856, progress insts committed: 19960654, IPC: 01.99407
18633644891199: Event_284: system.switch_cpus2 progress event, total committed:354466375, progress insts committed: 19959920, IPC: 0001.994
18633644891199: Event_285: system.switch_cpus3 progress event, total committed:354473934, progress insts committed: 19957217, IPC: 01.99373
18636978224532: Event_285: system.switch_cpus3 progress event, total committed:374504208, progress insts committed: 20030274, IPC: 02.00102
18636978224532: Event_284: system.switch_cpus2 progress event, total committed:374504145, progress insts committed: 20037770, IPC: 02.00177
18636978224532: Event_283: system.switch_cpus1 progress event, total committed:374476988, progress insts committed: 20032132, IPC: 02.00121
18636978224532: Event_282: system.switch_cpus0 progress event, total committed:374463456, progress insts committed: 20016633, IPC: 01.99966
18640311557865: Event_282: system.switch_cpus0 progress event, total committed:394301887, progress insts committed: 19838431, IPC: 01.98186
18640311557865: Event_283: system.switch_cpus1 progress event, total committed:394325469, progress insts committed: 19848481, IPC: 01.98286
18640311557865: Event_284: system.switch_cpus2 progress event, total committed:394349526, progress insts committed: 19845381, IPC: 01.98255
18640311557865: Event_285: system.switch_cpus3 progress event, total committed:394349683, progress insts committed: 19845475, IPC: 01.98256
18643644891198: Event_285: system.switch_cpus3 progress event, total committed:414254971, progress insts committed: 19905288, IPC: 01.98854
18643644891198: Event_284: system.switch_cpus2 progress event, total committed:414263348, progress insts committed: 19913822, IPC: 01.98939
18643644891198: Event_283: system.switch_cpus1 progress event, total committed:414229682, progress insts committed: 19904213, IPC: 01.98843
18643644891198: Event_282: system.switch_cpus0 progress event, total committed:414210856, progress insts committed: 19908969, IPC: 01.98891
18646978224531: Event_282: system.switch_cpus0 progress event, total committed:434198532, progress insts committed: 19987676, IPC: 01.99677
18646978224531: Event_283: system.switch_cpus1 progress event, total committed:434214007, progress insts committed: 19984325, IPC: 01.99643
18646978224531: Event_284: system.switch_cpus2 progress event, total committed:434258755, progress insts committed: 19995407, IPC: 01.99754
18646978224531: Event_285: system.switch_cpus3 progress event, total committed:434240287, progress insts committed: 19985316, IPC: 01.99653
18650311557864: Event_285: system.switch_cpus3 progress event, total committed:454227229, progress insts committed: 19986942, IPC: 001.9967
18650311557864: Event_284: system.switch_cpus2 progress event, total committed:454228255, progress insts committed: 19969500, IPC: 01.99495
18650311557864: Event_283: system.switch_cpus1 progress event, total committed:454198837, progress insts committed: 19984830, IPC: 01.99648
18650311557864: Event_282: system.switch_cpus0 progress event, total committed:454178690, progress insts committed: 19980158, IPC: 01.99602
Exiting @ tick 18651247621794 because a thread reached the max instruction count
