
---------- Begin Simulation Statistics ----------
final_tick                               15023798015814                       # Number of ticks from beginning of simulation (restored from checkpoints and never reset)
host_inst_rate                                 148401                       # Simulator instruction rate (inst/s)
host_mem_usage                               17423528                       # Number of bytes of host memory used
host_op_rate                                   215328                       # Simulator op (including micro ops) rate (op/s)
host_seconds                                  6736.83                       # Real time elapsed on the host
host_tick_rate                               10888194                       # Simulator tick rate (ticks/s)
sim_freq                                 1000000000000                       # Frequency of simulated ticks
sim_insts                                   999755102                       # Number of instructions simulated
sim_ops                                    1450624864                       # Number of ops (including micro ops) simulated
sim_seconds                                  0.073352                       # Number of seconds simulated
sim_ticks                                 73351897011                       # Number of ticks simulated
system.cpu0.Branches                                1                       # Number of branches fetched
system.cpu0.committedInsts                         11                       # Number of instructions committed
system.cpu0.committedOps                           23                       # Number of ops (including micro ops) committed
system.cpu0.idle_fraction                           0                       # Percentage of idle cycles
system.cpu0.l2bus.snoop_filter.hit_multi_requests           82                       # Number of requests hitting in the snoop filter with multiple (>1) holders of the requested data.
system.cpu0.l2bus.snoop_filter.hit_multi_snoops            0                       # Number of snoops hitting in the snoop filter with multiple (>1) holders of the requested data.
system.cpu0.l2bus.snoop_filter.hit_single_requests       226801                       # Number of requests hitting in the snoop filter with a single holder of the requested data.
system.cpu0.l2bus.snoop_filter.hit_single_snoops          325                       # Number of snoops hitting in the snoop filter with a single holder of the requested data.
system.cpu0.l2bus.snoop_filter.tot_requests       453951                       # Total number of requests made to the snoop filter.
system.cpu0.l2bus.snoop_filter.tot_snoops          325                       # Total number of snoops made to the snoop filter.
system.cpu0.mmucache.mmubus.snoop_filter.hit_multi_requests            0                       # Number of requests hitting in the snoop filter with multiple (>1) holders of the requested data.
system.cpu0.mmucache.mmubus.snoop_filter.hit_multi_snoops            0                       # Number of snoops hitting in the snoop filter with multiple (>1) holders of the requested data.
system.cpu0.mmucache.mmubus.snoop_filter.hit_single_requests            0                       # Number of requests hitting in the snoop filter with a single holder of the requested data.
system.cpu0.mmucache.mmubus.snoop_filter.hit_single_snoops            0                       # Number of snoops hitting in the snoop filter with a single holder of the requested data.
system.cpu0.mmucache.mmubus.snoop_filter.tot_requests            0                       # Total number of requests made to the snoop filter.
system.cpu0.mmucache.mmubus.snoop_filter.tot_snoops            0                       # Total number of snoops made to the snoop filter.
system.cpu0.not_idle_fraction                       1                       # Percentage of non-idle cycles
system.cpu0.numCycles                              30                       # number of cpu cycles simulated
system.cpu0.numWorkItemsCompleted                   0                       # number of work items this cpu completed
system.cpu0.numWorkItemsStarted                     0                       # number of work items this cpu started
system.cpu0.num_busy_cycles                        30                       # Number of busy cycles
system.cpu0.num_cc_register_reads                   5                       # number of times the CC registers were read
system.cpu0.num_cc_register_writes                  4                       # number of times the CC registers were written
system.cpu0.num_conditional_control_insts            1                       # number of instructions that are conditional controls
system.cpu0.num_fp_alu_accesses                    12                       # Number of float alu accesses
system.cpu0.num_fp_insts                           12                       # number of float instructions
system.cpu0.num_fp_register_reads                   4                       # number of times the floating registers were read
system.cpu0.num_fp_register_writes                  8                       # number of times the floating registers were written
system.cpu0.num_func_calls                          0                       # number of times a function call or return occured
system.cpu0.num_idle_cycles                         0                       # Number of idle cycles
system.cpu0.num_int_alu_accesses                   23                       # Number of integer alu accesses
system.cpu0.num_int_insts                          23                       # number of integer instructions
system.cpu0.num_int_register_reads                 58                       # number of times the integer registers were read
system.cpu0.num_int_register_writes                 8                       # number of times the integer registers were written
system.cpu0.num_load_insts                         10                       # Number of load instructions
system.cpu0.num_mem_refs                           16                       # number of memory refs
system.cpu0.num_store_insts                         6                       # Number of store instructions
system.cpu0.num_vec_alu_accesses                    0                       # Number of vector alu accesses
system.cpu0.num_vec_insts                           0                       # number of vector instructions
system.cpu0.num_vec_register_reads                  0                       # number of times the vector registers were read
system.cpu0.num_vec_register_writes                 0                       # number of times the vector registers were written
system.cpu0.op_class::No_OpClass                    2      8.00%      8.00% # Class of executed instruction
system.cpu0.op_class::IntAlu                        7     28.00%     36.00% # Class of executed instruction
system.cpu0.op_class::IntMult                       0      0.00%     36.00% # Class of executed instruction
system.cpu0.op_class::IntDiv                        0      0.00%     36.00% # Class of executed instruction
system.cpu0.op_class::FloatAdd                      0      0.00%     36.00% # Class of executed instruction
system.cpu0.op_class::FloatCmp                      0      0.00%     36.00% # Class of executed instruction
system.cpu0.op_class::FloatCvt                      0      0.00%     36.00% # Class of executed instruction
system.cpu0.op_class::FloatMult                     0      0.00%     36.00% # Class of executed instruction
system.cpu0.op_class::FloatMultAcc                  0      0.00%     36.00% # Class of executed instruction
system.cpu0.op_class::FloatDiv                      0      0.00%     36.00% # Class of executed instruction
system.cpu0.op_class::FloatMisc                     0      0.00%     36.00% # Class of executed instruction
system.cpu0.op_class::FloatSqrt                     0      0.00%     36.00% # Class of executed instruction
system.cpu0.op_class::SimdAdd                       0      0.00%     36.00% # Class of executed instruction
system.cpu0.op_class::SimdAddAcc                    0      0.00%     36.00% # Class of executed instruction
system.cpu0.op_class::SimdAlu                       0      0.00%     36.00% # Class of executed instruction
system.cpu0.op_class::SimdCmp                       0      0.00%     36.00% # Class of executed instruction
system.cpu0.op_class::SimdCvt                       0      0.00%     36.00% # Class of executed instruction
system.cpu0.op_class::SimdMisc                      0      0.00%     36.00% # Class of executed instruction
system.cpu0.op_class::SimdMult                      0      0.00%     36.00% # Class of executed instruction
system.cpu0.op_class::SimdMultAcc                   0      0.00%     36.00% # Class of executed instruction
system.cpu0.op_class::SimdShift                     0      0.00%     36.00% # Class of executed instruction
system.cpu0.op_class::SimdShiftAcc                  0      0.00%     36.00% # Class of executed instruction
system.cpu0.op_class::SimdDiv                       0      0.00%     36.00% # Class of executed instruction
system.cpu0.op_class::SimdSqrt                      0      0.00%     36.00% # Class of executed instruction
system.cpu0.op_class::SimdFloatAdd                  0      0.00%     36.00% # Class of executed instruction
system.cpu0.op_class::SimdFloatAlu                  0      0.00%     36.00% # Class of executed instruction
system.cpu0.op_class::SimdFloatCmp                  0      0.00%     36.00% # Class of executed instruction
system.cpu0.op_class::SimdFloatCvt                  0      0.00%     36.00% # Class of executed instruction
system.cpu0.op_class::SimdFloatDiv                  0      0.00%     36.00% # Class of executed instruction
system.cpu0.op_class::SimdFloatMisc                 0      0.00%     36.00% # Class of executed instruction
system.cpu0.op_class::SimdFloatMult                 0      0.00%     36.00% # Class of executed instruction
system.cpu0.op_class::SimdFloatMultAcc              0      0.00%     36.00% # Class of executed instruction
system.cpu0.op_class::SimdFloatSqrt                 0      0.00%     36.00% # Class of executed instruction
system.cpu0.op_class::SimdReduceAdd                 0      0.00%     36.00% # Class of executed instruction
system.cpu0.op_class::SimdReduceAlu                 0      0.00%     36.00% # Class of executed instruction
system.cpu0.op_class::SimdReduceCmp                 0      0.00%     36.00% # Class of executed instruction
system.cpu0.op_class::SimdFloatReduceAdd            0      0.00%     36.00% # Class of executed instruction
system.cpu0.op_class::SimdFloatReduceCmp            0      0.00%     36.00% # Class of executed instruction
system.cpu0.op_class::SimdAes                       0      0.00%     36.00% # Class of executed instruction
system.cpu0.op_class::SimdAesMix                    0      0.00%     36.00% # Class of executed instruction
system.cpu0.op_class::SimdSha1Hash                  0      0.00%     36.00% # Class of executed instruction
system.cpu0.op_class::SimdSha1Hash2                 0      0.00%     36.00% # Class of executed instruction
system.cpu0.op_class::SimdSha256Hash                0      0.00%     36.00% # Class of executed instruction
system.cpu0.op_class::SimdSha256Hash2               0      0.00%     36.00% # Class of executed instruction
system.cpu0.op_class::SimdShaSigma2                 0      0.00%     36.00% # Class of executed instruction
system.cpu0.op_class::SimdShaSigma3                 0      0.00%     36.00% # Class of executed instruction
system.cpu0.op_class::SimdPredAlu                   0      0.00%     36.00% # Class of executed instruction
system.cpu0.op_class::MemRead                       2      8.00%     44.00% # Class of executed instruction
system.cpu0.op_class::MemWrite                      2      8.00%     52.00% # Class of executed instruction
system.cpu0.op_class::FloatMemRead                  8     32.00%     84.00% # Class of executed instruction
system.cpu0.op_class::FloatMemWrite                 4     16.00%    100.00% # Class of executed instruction
system.cpu0.op_class::IprAccess                     0      0.00%    100.00% # Class of executed instruction
system.cpu0.op_class::InstPrefetch                  0      0.00%    100.00% # Class of executed instruction
system.cpu0.op_class::total                        25                       # Class of executed instruction
system.cpu0.workload.numSyscalls                    0                       # Number of system calls
system.cpu1.Branches                                1                       # Number of branches fetched
system.cpu1.committedInsts                         11                       # Number of instructions committed
system.cpu1.committedOps                           23                       # Number of ops (including micro ops) committed
system.cpu1.idle_fraction                           0                       # Percentage of idle cycles
system.cpu1.l2bus.snoop_filter.hit_multi_requests          301                       # Number of requests hitting in the snoop filter with multiple (>1) holders of the requested data.
system.cpu1.l2bus.snoop_filter.hit_multi_snoops            0                       # Number of snoops hitting in the snoop filter with multiple (>1) holders of the requested data.
system.cpu1.l2bus.snoop_filter.hit_single_requests       227096                       # Number of requests hitting in the snoop filter with a single holder of the requested data.
system.cpu1.l2bus.snoop_filter.hit_single_snoops          331                       # Number of snoops hitting in the snoop filter with a single holder of the requested data.
system.cpu1.l2bus.snoop_filter.tot_requests       454448                       # Total number of requests made to the snoop filter.
system.cpu1.l2bus.snoop_filter.tot_snoops          331                       # Total number of snoops made to the snoop filter.
system.cpu1.mmucache.mmubus.snoop_filter.hit_multi_requests            0                       # Number of requests hitting in the snoop filter with multiple (>1) holders of the requested data.
system.cpu1.mmucache.mmubus.snoop_filter.hit_multi_snoops            0                       # Number of snoops hitting in the snoop filter with multiple (>1) holders of the requested data.
system.cpu1.mmucache.mmubus.snoop_filter.hit_single_requests            0                       # Number of requests hitting in the snoop filter with a single holder of the requested data.
system.cpu1.mmucache.mmubus.snoop_filter.hit_single_snoops            0                       # Number of snoops hitting in the snoop filter with a single holder of the requested data.
system.cpu1.mmucache.mmubus.snoop_filter.tot_requests            0                       # Total number of requests made to the snoop filter.
system.cpu1.mmucache.mmubus.snoop_filter.tot_snoops            0                       # Total number of snoops made to the snoop filter.
system.cpu1.not_idle_fraction                       1                       # Percentage of non-idle cycles
system.cpu1.numCycles                              30                       # number of cpu cycles simulated
system.cpu1.numWorkItemsCompleted                   0                       # number of work items this cpu completed
system.cpu1.numWorkItemsStarted                     0                       # number of work items this cpu started
system.cpu1.num_busy_cycles                        30                       # Number of busy cycles
system.cpu1.num_cc_register_reads                   5                       # number of times the CC registers were read
system.cpu1.num_cc_register_writes                  4                       # number of times the CC registers were written
system.cpu1.num_conditional_control_insts            1                       # number of instructions that are conditional controls
system.cpu1.num_fp_alu_accesses                    12                       # Number of float alu accesses
system.cpu1.num_fp_insts                           12                       # number of float instructions
system.cpu1.num_fp_register_reads                   4                       # number of times the floating registers were read
system.cpu1.num_fp_register_writes                  8                       # number of times the floating registers were written
system.cpu1.num_func_calls                          0                       # number of times a function call or return occured
system.cpu1.num_idle_cycles                         0                       # Number of idle cycles
system.cpu1.num_int_alu_accesses                   23                       # Number of integer alu accesses
system.cpu1.num_int_insts                          23                       # number of integer instructions
system.cpu1.num_int_register_reads                 58                       # number of times the integer registers were read
system.cpu1.num_int_register_writes                 8                       # number of times the integer registers were written
system.cpu1.num_load_insts                         10                       # Number of load instructions
system.cpu1.num_mem_refs                           16                       # number of memory refs
system.cpu1.num_store_insts                         6                       # Number of store instructions
system.cpu1.num_vec_alu_accesses                    0                       # Number of vector alu accesses
system.cpu1.num_vec_insts                           0                       # number of vector instructions
system.cpu1.num_vec_register_reads                  0                       # number of times the vector registers were read
system.cpu1.num_vec_register_writes                 0                       # number of times the vector registers were written
system.cpu1.op_class::No_OpClass                    2      8.00%      8.00% # Class of executed instruction
system.cpu1.op_class::IntAlu                        7     28.00%     36.00% # Class of executed instruction
system.cpu1.op_class::IntMult                       0      0.00%     36.00% # Class of executed instruction
system.cpu1.op_class::IntDiv                        0      0.00%     36.00% # Class of executed instruction
system.cpu1.op_class::FloatAdd                      0      0.00%     36.00% # Class of executed instruction
system.cpu1.op_class::FloatCmp                      0      0.00%     36.00% # Class of executed instruction
system.cpu1.op_class::FloatCvt                      0      0.00%     36.00% # Class of executed instruction
system.cpu1.op_class::FloatMult                     0      0.00%     36.00% # Class of executed instruction
system.cpu1.op_class::FloatMultAcc                  0      0.00%     36.00% # Class of executed instruction
system.cpu1.op_class::FloatDiv                      0      0.00%     36.00% # Class of executed instruction
system.cpu1.op_class::FloatMisc                     0      0.00%     36.00% # Class of executed instruction
system.cpu1.op_class::FloatSqrt                     0      0.00%     36.00% # Class of executed instruction
system.cpu1.op_class::SimdAdd                       0      0.00%     36.00% # Class of executed instruction
system.cpu1.op_class::SimdAddAcc                    0      0.00%     36.00% # Class of executed instruction
system.cpu1.op_class::SimdAlu                       0      0.00%     36.00% # Class of executed instruction
system.cpu1.op_class::SimdCmp                       0      0.00%     36.00% # Class of executed instruction
system.cpu1.op_class::SimdCvt                       0      0.00%     36.00% # Class of executed instruction
system.cpu1.op_class::SimdMisc                      0      0.00%     36.00% # Class of executed instruction
system.cpu1.op_class::SimdMult                      0      0.00%     36.00% # Class of executed instruction
system.cpu1.op_class::SimdMultAcc                   0      0.00%     36.00% # Class of executed instruction
system.cpu1.op_class::SimdShift                     0      0.00%     36.00% # Class of executed instruction
system.cpu1.op_class::SimdShiftAcc                  0      0.00%     36.00% # Class of executed instruction
system.cpu1.op_class::SimdDiv                       0      0.00%     36.00% # Class of executed instruction
system.cpu1.op_class::SimdSqrt                      0      0.00%     36.00% # Class of executed instruction
system.cpu1.op_class::SimdFloatAdd                  0      0.00%     36.00% # Class of executed instruction
system.cpu1.op_class::SimdFloatAlu                  0      0.00%     36.00% # Class of executed instruction
system.cpu1.op_class::SimdFloatCmp                  0      0.00%     36.00% # Class of executed instruction
system.cpu1.op_class::SimdFloatCvt                  0      0.00%     36.00% # Class of executed instruction
system.cpu1.op_class::SimdFloatDiv                  0      0.00%     36.00% # Class of executed instruction
system.cpu1.op_class::SimdFloatMisc                 0      0.00%     36.00% # Class of executed instruction
system.cpu1.op_class::SimdFloatMult                 0      0.00%     36.00% # Class of executed instruction
system.cpu1.op_class::SimdFloatMultAcc              0      0.00%     36.00% # Class of executed instruction
system.cpu1.op_class::SimdFloatSqrt                 0      0.00%     36.00% # Class of executed instruction
system.cpu1.op_class::SimdReduceAdd                 0      0.00%     36.00% # Class of executed instruction
system.cpu1.op_class::SimdReduceAlu                 0      0.00%     36.00% # Class of executed instruction
system.cpu1.op_class::SimdReduceCmp                 0      0.00%     36.00% # Class of executed instruction
system.cpu1.op_class::SimdFloatReduceAdd            0      0.00%     36.00% # Class of executed instruction
system.cpu1.op_class::SimdFloatReduceCmp            0      0.00%     36.00% # Class of executed instruction
system.cpu1.op_class::SimdAes                       0      0.00%     36.00% # Class of executed instruction
system.cpu1.op_class::SimdAesMix                    0      0.00%     36.00% # Class of executed instruction
system.cpu1.op_class::SimdSha1Hash                  0      0.00%     36.00% # Class of executed instruction
system.cpu1.op_class::SimdSha1Hash2                 0      0.00%     36.00% # Class of executed instruction
system.cpu1.op_class::SimdSha256Hash                0      0.00%     36.00% # Class of executed instruction
system.cpu1.op_class::SimdSha256Hash2               0      0.00%     36.00% # Class of executed instruction
system.cpu1.op_class::SimdShaSigma2                 0      0.00%     36.00% # Class of executed instruction
system.cpu1.op_class::SimdShaSigma3                 0      0.00%     36.00% # Class of executed instruction
system.cpu1.op_class::SimdPredAlu                   0      0.00%     36.00% # Class of executed instruction
system.cpu1.op_class::MemRead                       2      8.00%     44.00% # Class of executed instruction
system.cpu1.op_class::MemWrite                      2      8.00%     52.00% # Class of executed instruction
system.cpu1.op_class::FloatMemRead                  8     32.00%     84.00% # Class of executed instruction
system.cpu1.op_class::FloatMemWrite                 4     16.00%    100.00% # Class of executed instruction
system.cpu1.op_class::IprAccess                     0      0.00%    100.00% # Class of executed instruction
system.cpu1.op_class::InstPrefetch                  0      0.00%    100.00% # Class of executed instruction
system.cpu1.op_class::total                        25                       # Class of executed instruction
system.cpu1.workload.numSyscalls                    0                       # Number of system calls
system.cpu2.Branches                                1                       # Number of branches fetched
system.cpu2.committedInsts                         11                       # Number of instructions committed
system.cpu2.committedOps                           23                       # Number of ops (including micro ops) committed
system.cpu2.idle_fraction                           0                       # Percentage of idle cycles
system.cpu2.l2bus.snoop_filter.hit_multi_requests          105                       # Number of requests hitting in the snoop filter with multiple (>1) holders of the requested data.
system.cpu2.l2bus.snoop_filter.hit_multi_snoops            0                       # Number of snoops hitting in the snoop filter with multiple (>1) holders of the requested data.
system.cpu2.l2bus.snoop_filter.hit_single_requests       226866                       # Number of requests hitting in the snoop filter with a single holder of the requested data.
system.cpu2.l2bus.snoop_filter.hit_single_snoops          354                       # Number of snoops hitting in the snoop filter with a single holder of the requested data.
system.cpu2.l2bus.snoop_filter.tot_requests       454104                       # Total number of requests made to the snoop filter.
system.cpu2.l2bus.snoop_filter.tot_snoops          354                       # Total number of snoops made to the snoop filter.
system.cpu2.mmucache.mmubus.snoop_filter.hit_multi_requests            0                       # Number of requests hitting in the snoop filter with multiple (>1) holders of the requested data.
system.cpu2.mmucache.mmubus.snoop_filter.hit_multi_snoops            0                       # Number of snoops hitting in the snoop filter with multiple (>1) holders of the requested data.
system.cpu2.mmucache.mmubus.snoop_filter.hit_single_requests            0                       # Number of requests hitting in the snoop filter with a single holder of the requested data.
system.cpu2.mmucache.mmubus.snoop_filter.hit_single_snoops            0                       # Number of snoops hitting in the snoop filter with a single holder of the requested data.
system.cpu2.mmucache.mmubus.snoop_filter.tot_requests            0                       # Total number of requests made to the snoop filter.
system.cpu2.mmucache.mmubus.snoop_filter.tot_snoops            0                       # Total number of snoops made to the snoop filter.
system.cpu2.not_idle_fraction                       1                       # Percentage of non-idle cycles
system.cpu2.numCycles                              30                       # number of cpu cycles simulated
system.cpu2.numWorkItemsCompleted                   0                       # number of work items this cpu completed
system.cpu2.numWorkItemsStarted                     0                       # number of work items this cpu started
system.cpu2.num_busy_cycles                        30                       # Number of busy cycles
system.cpu2.num_cc_register_reads                   5                       # number of times the CC registers were read
system.cpu2.num_cc_register_writes                  4                       # number of times the CC registers were written
system.cpu2.num_conditional_control_insts            1                       # number of instructions that are conditional controls
system.cpu2.num_fp_alu_accesses                    12                       # Number of float alu accesses
system.cpu2.num_fp_insts                           12                       # number of float instructions
system.cpu2.num_fp_register_reads                   4                       # number of times the floating registers were read
system.cpu2.num_fp_register_writes                  8                       # number of times the floating registers were written
system.cpu2.num_func_calls                          0                       # number of times a function call or return occured
system.cpu2.num_idle_cycles                         0                       # Number of idle cycles
system.cpu2.num_int_alu_accesses                   23                       # Number of integer alu accesses
system.cpu2.num_int_insts                          23                       # number of integer instructions
system.cpu2.num_int_register_reads                 58                       # number of times the integer registers were read
system.cpu2.num_int_register_writes                 8                       # number of times the integer registers were written
system.cpu2.num_load_insts                         10                       # Number of load instructions
system.cpu2.num_mem_refs                           16                       # number of memory refs
system.cpu2.num_store_insts                         6                       # Number of store instructions
system.cpu2.num_vec_alu_accesses                    0                       # Number of vector alu accesses
system.cpu2.num_vec_insts                           0                       # number of vector instructions
system.cpu2.num_vec_register_reads                  0                       # number of times the vector registers were read
system.cpu2.num_vec_register_writes                 0                       # number of times the vector registers were written
system.cpu2.op_class::No_OpClass                    2      8.00%      8.00% # Class of executed instruction
system.cpu2.op_class::IntAlu                        7     28.00%     36.00% # Class of executed instruction
system.cpu2.op_class::IntMult                       0      0.00%     36.00% # Class of executed instruction
system.cpu2.op_class::IntDiv                        0      0.00%     36.00% # Class of executed instruction
system.cpu2.op_class::FloatAdd                      0      0.00%     36.00% # Class of executed instruction
system.cpu2.op_class::FloatCmp                      0      0.00%     36.00% # Class of executed instruction
system.cpu2.op_class::FloatCvt                      0      0.00%     36.00% # Class of executed instruction
system.cpu2.op_class::FloatMult                     0      0.00%     36.00% # Class of executed instruction
system.cpu2.op_class::FloatMultAcc                  0      0.00%     36.00% # Class of executed instruction
system.cpu2.op_class::FloatDiv                      0      0.00%     36.00% # Class of executed instruction
system.cpu2.op_class::FloatMisc                     0      0.00%     36.00% # Class of executed instruction
system.cpu2.op_class::FloatSqrt                     0      0.00%     36.00% # Class of executed instruction
system.cpu2.op_class::SimdAdd                       0      0.00%     36.00% # Class of executed instruction
system.cpu2.op_class::SimdAddAcc                    0      0.00%     36.00% # Class of executed instruction
system.cpu2.op_class::SimdAlu                       0      0.00%     36.00% # Class of executed instruction
system.cpu2.op_class::SimdCmp                       0      0.00%     36.00% # Class of executed instruction
system.cpu2.op_class::SimdCvt                       0      0.00%     36.00% # Class of executed instruction
system.cpu2.op_class::SimdMisc                      0      0.00%     36.00% # Class of executed instruction
system.cpu2.op_class::SimdMult                      0      0.00%     36.00% # Class of executed instruction
system.cpu2.op_class::SimdMultAcc                   0      0.00%     36.00% # Class of executed instruction
system.cpu2.op_class::SimdShift                     0      0.00%     36.00% # Class of executed instruction
system.cpu2.op_class::SimdShiftAcc                  0      0.00%     36.00% # Class of executed instruction
system.cpu2.op_class::SimdDiv                       0      0.00%     36.00% # Class of executed instruction
system.cpu2.op_class::SimdSqrt                      0      0.00%     36.00% # Class of executed instruction
system.cpu2.op_class::SimdFloatAdd                  0      0.00%     36.00% # Class of executed instruction
system.cpu2.op_class::SimdFloatAlu                  0      0.00%     36.00% # Class of executed instruction
system.cpu2.op_class::SimdFloatCmp                  0      0.00%     36.00% # Class of executed instruction
system.cpu2.op_class::SimdFloatCvt                  0      0.00%     36.00% # Class of executed instruction
system.cpu2.op_class::SimdFloatDiv                  0      0.00%     36.00% # Class of executed instruction
system.cpu2.op_class::SimdFloatMisc                 0      0.00%     36.00% # Class of executed instruction
system.cpu2.op_class::SimdFloatMult                 0      0.00%     36.00% # Class of executed instruction
system.cpu2.op_class::SimdFloatMultAcc              0      0.00%     36.00% # Class of executed instruction
system.cpu2.op_class::SimdFloatSqrt                 0      0.00%     36.00% # Class of executed instruction
system.cpu2.op_class::SimdReduceAdd                 0      0.00%     36.00% # Class of executed instruction
system.cpu2.op_class::SimdReduceAlu                 0      0.00%     36.00% # Class of executed instruction
system.cpu2.op_class::SimdReduceCmp                 0      0.00%     36.00% # Class of executed instruction
system.cpu2.op_class::SimdFloatReduceAdd            0      0.00%     36.00% # Class of executed instruction
system.cpu2.op_class::SimdFloatReduceCmp            0      0.00%     36.00% # Class of executed instruction
system.cpu2.op_class::SimdAes                       0      0.00%     36.00% # Class of executed instruction
system.cpu2.op_class::SimdAesMix                    0      0.00%     36.00% # Class of executed instruction
system.cpu2.op_class::SimdSha1Hash                  0      0.00%     36.00% # Class of executed instruction
system.cpu2.op_class::SimdSha1Hash2                 0      0.00%     36.00% # Class of executed instruction
system.cpu2.op_class::SimdSha256Hash                0      0.00%     36.00% # Class of executed instruction
system.cpu2.op_class::SimdSha256Hash2               0      0.00%     36.00% # Class of executed instruction
system.cpu2.op_class::SimdShaSigma2                 0      0.00%     36.00% # Class of executed instruction
system.cpu2.op_class::SimdShaSigma3                 0      0.00%     36.00% # Class of executed instruction
system.cpu2.op_class::SimdPredAlu                   0      0.00%     36.00% # Class of executed instruction
system.cpu2.op_class::MemRead                       2      8.00%     44.00% # Class of executed instruction
system.cpu2.op_class::MemWrite                      2      8.00%     52.00% # Class of executed instruction
system.cpu2.op_class::FloatMemRead                  8     32.00%     84.00% # Class of executed instruction
system.cpu2.op_class::FloatMemWrite                 4     16.00%    100.00% # Class of executed instruction
system.cpu2.op_class::IprAccess                     0      0.00%    100.00% # Class of executed instruction
system.cpu2.op_class::InstPrefetch                  0      0.00%    100.00% # Class of executed instruction
system.cpu2.op_class::total                        25                       # Class of executed instruction
system.cpu2.workload.numSyscalls                    0                       # Number of system calls
system.cpu3.Branches                                1                       # Number of branches fetched
system.cpu3.committedInsts                         11                       # Number of instructions committed
system.cpu3.committedOps                           23                       # Number of ops (including micro ops) committed
system.cpu3.idle_fraction                           0                       # Percentage of idle cycles
system.cpu3.l2bus.snoop_filter.hit_multi_requests          304                       # Number of requests hitting in the snoop filter with multiple (>1) holders of the requested data.
system.cpu3.l2bus.snoop_filter.hit_multi_snoops            0                       # Number of snoops hitting in the snoop filter with multiple (>1) holders of the requested data.
system.cpu3.l2bus.snoop_filter.hit_single_requests       227065                       # Number of requests hitting in the snoop filter with a single holder of the requested data.
system.cpu3.l2bus.snoop_filter.hit_single_snoops          269                       # Number of snoops hitting in the snoop filter with a single holder of the requested data.
system.cpu3.l2bus.snoop_filter.tot_requests       454375                       # Total number of requests made to the snoop filter.
system.cpu3.l2bus.snoop_filter.tot_snoops          269                       # Total number of snoops made to the snoop filter.
system.cpu3.mmucache.mmubus.snoop_filter.hit_multi_requests            0                       # Number of requests hitting in the snoop filter with multiple (>1) holders of the requested data.
system.cpu3.mmucache.mmubus.snoop_filter.hit_multi_snoops            0                       # Number of snoops hitting in the snoop filter with multiple (>1) holders of the requested data.
system.cpu3.mmucache.mmubus.snoop_filter.hit_single_requests            0                       # Number of requests hitting in the snoop filter with a single holder of the requested data.
system.cpu3.mmucache.mmubus.snoop_filter.hit_single_snoops            0                       # Number of snoops hitting in the snoop filter with a single holder of the requested data.
system.cpu3.mmucache.mmubus.snoop_filter.tot_requests            0                       # Total number of requests made to the snoop filter.
system.cpu3.mmucache.mmubus.snoop_filter.tot_snoops            0                       # Total number of snoops made to the snoop filter.
system.cpu3.not_idle_fraction                       1                       # Percentage of non-idle cycles
system.cpu3.numCycles                              30                       # number of cpu cycles simulated
system.cpu3.numWorkItemsCompleted                   0                       # number of work items this cpu completed
system.cpu3.numWorkItemsStarted                     0                       # number of work items this cpu started
system.cpu3.num_busy_cycles                        30                       # Number of busy cycles
system.cpu3.num_cc_register_reads                   5                       # number of times the CC registers were read
system.cpu3.num_cc_register_writes                  4                       # number of times the CC registers were written
system.cpu3.num_conditional_control_insts            1                       # number of instructions that are conditional controls
system.cpu3.num_fp_alu_accesses                    12                       # Number of float alu accesses
system.cpu3.num_fp_insts                           12                       # number of float instructions
system.cpu3.num_fp_register_reads                   4                       # number of times the floating registers were read
system.cpu3.num_fp_register_writes                  8                       # number of times the floating registers were written
system.cpu3.num_func_calls                          0                       # number of times a function call or return occured
system.cpu3.num_idle_cycles                         0                       # Number of idle cycles
system.cpu3.num_int_alu_accesses                   23                       # Number of integer alu accesses
system.cpu3.num_int_insts                          23                       # number of integer instructions
system.cpu3.num_int_register_reads                 58                       # number of times the integer registers were read
system.cpu3.num_int_register_writes                 8                       # number of times the integer registers were written
system.cpu3.num_load_insts                         10                       # Number of load instructions
system.cpu3.num_mem_refs                           16                       # number of memory refs
system.cpu3.num_store_insts                         6                       # Number of store instructions
system.cpu3.num_vec_alu_accesses                    0                       # Number of vector alu accesses
system.cpu3.num_vec_insts                           0                       # number of vector instructions
system.cpu3.num_vec_register_reads                  0                       # number of times the vector registers were read
system.cpu3.num_vec_register_writes                 0                       # number of times the vector registers were written
system.cpu3.op_class::No_OpClass                    2      8.00%      8.00% # Class of executed instruction
system.cpu3.op_class::IntAlu                        7     28.00%     36.00% # Class of executed instruction
system.cpu3.op_class::IntMult                       0      0.00%     36.00% # Class of executed instruction
system.cpu3.op_class::IntDiv                        0      0.00%     36.00% # Class of executed instruction
system.cpu3.op_class::FloatAdd                      0      0.00%     36.00% # Class of executed instruction
system.cpu3.op_class::FloatCmp                      0      0.00%     36.00% # Class of executed instruction
system.cpu3.op_class::FloatCvt                      0      0.00%     36.00% # Class of executed instruction
system.cpu3.op_class::FloatMult                     0      0.00%     36.00% # Class of executed instruction
system.cpu3.op_class::FloatMultAcc                  0      0.00%     36.00% # Class of executed instruction
system.cpu3.op_class::FloatDiv                      0      0.00%     36.00% # Class of executed instruction
system.cpu3.op_class::FloatMisc                     0      0.00%     36.00% # Class of executed instruction
system.cpu3.op_class::FloatSqrt                     0      0.00%     36.00% # Class of executed instruction
system.cpu3.op_class::SimdAdd                       0      0.00%     36.00% # Class of executed instruction
system.cpu3.op_class::SimdAddAcc                    0      0.00%     36.00% # Class of executed instruction
system.cpu3.op_class::SimdAlu                       0      0.00%     36.00% # Class of executed instruction
system.cpu3.op_class::SimdCmp                       0      0.00%     36.00% # Class of executed instruction
system.cpu3.op_class::SimdCvt                       0      0.00%     36.00% # Class of executed instruction
system.cpu3.op_class::SimdMisc                      0      0.00%     36.00% # Class of executed instruction
system.cpu3.op_class::SimdMult                      0      0.00%     36.00% # Class of executed instruction
system.cpu3.op_class::SimdMultAcc                   0      0.00%     36.00% # Class of executed instruction
system.cpu3.op_class::SimdShift                     0      0.00%     36.00% # Class of executed instruction
system.cpu3.op_class::SimdShiftAcc                  0      0.00%     36.00% # Class of executed instruction
system.cpu3.op_class::SimdDiv                       0      0.00%     36.00% # Class of executed instruction
system.cpu3.op_class::SimdSqrt                      0      0.00%     36.00% # Class of executed instruction
system.cpu3.op_class::SimdFloatAdd                  0      0.00%     36.00% # Class of executed instruction
system.cpu3.op_class::SimdFloatAlu                  0      0.00%     36.00% # Class of executed instruction
system.cpu3.op_class::SimdFloatCmp                  0      0.00%     36.00% # Class of executed instruction
system.cpu3.op_class::SimdFloatCvt                  0      0.00%     36.00% # Class of executed instruction
system.cpu3.op_class::SimdFloatDiv                  0      0.00%     36.00% # Class of executed instruction
system.cpu3.op_class::SimdFloatMisc                 0      0.00%     36.00% # Class of executed instruction
system.cpu3.op_class::SimdFloatMult                 0      0.00%     36.00% # Class of executed instruction
system.cpu3.op_class::SimdFloatMultAcc              0      0.00%     36.00% # Class of executed instruction
system.cpu3.op_class::SimdFloatSqrt                 0      0.00%     36.00% # Class of executed instruction
system.cpu3.op_class::SimdReduceAdd                 0      0.00%     36.00% # Class of executed instruction
system.cpu3.op_class::SimdReduceAlu                 0      0.00%     36.00% # Class of executed instruction
system.cpu3.op_class::SimdReduceCmp                 0      0.00%     36.00% # Class of executed instruction
system.cpu3.op_class::SimdFloatReduceAdd            0      0.00%     36.00% # Class of executed instruction
system.cpu3.op_class::SimdFloatReduceCmp            0      0.00%     36.00% # Class of executed instruction
system.cpu3.op_class::SimdAes                       0      0.00%     36.00% # Class of executed instruction
system.cpu3.op_class::SimdAesMix                    0      0.00%     36.00% # Class of executed instruction
system.cpu3.op_class::SimdSha1Hash                  0      0.00%     36.00% # Class of executed instruction
system.cpu3.op_class::SimdSha1Hash2                 0      0.00%     36.00% # Class of executed instruction
system.cpu3.op_class::SimdSha256Hash                0      0.00%     36.00% # Class of executed instruction
system.cpu3.op_class::SimdSha256Hash2               0      0.00%     36.00% # Class of executed instruction
system.cpu3.op_class::SimdShaSigma2                 0      0.00%     36.00% # Class of executed instruction
system.cpu3.op_class::SimdShaSigma3                 0      0.00%     36.00% # Class of executed instruction
system.cpu3.op_class::SimdPredAlu                   0      0.00%     36.00% # Class of executed instruction
system.cpu3.op_class::MemRead                       2      8.00%     44.00% # Class of executed instruction
system.cpu3.op_class::MemWrite                      2      8.00%     52.00% # Class of executed instruction
system.cpu3.op_class::FloatMemRead                  8     32.00%     84.00% # Class of executed instruction
system.cpu3.op_class::FloatMemWrite                 4     16.00%    100.00% # Class of executed instruction
system.cpu3.op_class::IprAccess                     0      0.00%    100.00% # Class of executed instruction
system.cpu3.op_class::InstPrefetch                  0      0.00%    100.00% # Class of executed instruction
system.cpu3.op_class::total                        25                       # Class of executed instruction
system.cpu3.workload.numSyscalls                    0                       # Number of system calls
system.l3bus.snoop_filter.hit_multi_requests            0                       # Number of requests hitting in the snoop filter with multiple (>1) holders of the requested data.
system.l3bus.snoop_filter.hit_multi_snoops            0                       # Number of snoops hitting in the snoop filter with multiple (>1) holders of the requested data.
system.l3bus.snoop_filter.hit_single_requests       423921                       # Number of requests hitting in the snoop filter with a single holder of the requested data.
system.l3bus.snoop_filter.hit_single_snoops            0                       # Number of snoops hitting in the snoop filter with a single holder of the requested data.
system.l3bus.snoop_filter.tot_requests         858132                       # Total number of requests made to the snoop filter.
system.l3bus.snoop_filter.tot_snoops                0                       # Total number of snoops made to the snoop filter.
system.membus.snoop_filter.hit_multi_requests            0                       # Number of requests hitting in the snoop filter with multiple (>1) holders of the requested data.
system.membus.snoop_filter.hit_multi_snoops            0                       # Number of snoops hitting in the snoop filter with multiple (>1) holders of the requested data.
system.membus.snoop_filter.hit_single_requests       335643                       # Number of requests hitting in the snoop filter with a single holder of the requested data.
system.membus.snoop_filter.hit_single_snoops            0                       # Number of snoops hitting in the snoop filter with a single holder of the requested data.
system.membus.snoop_filter.tot_requests        746914                       # Total number of requests made to the snoop filter.
system.membus.snoop_filter.tot_snoops               0                       # Total number of snoops made to the snoop filter.
system.switch_cpus0.cc_regfile_reads        213993135                       # number of cc regfile reads
system.switch_cpus0.cc_regfile_writes       252657576                       # number of cc regfile writes
system.switch_cpus0.committedInsts          249999975                       # Number of Instructions Simulated
system.switch_cpus0.committedOps            362744658                       # Number of Ops (including micro ops) Simulated
system.switch_cpus0.cpi                      0.881104                       # CPI: Cycles Per Instruction
system.switch_cpus0.cpi_total                0.881104                       # CPI: Total CPI of All Threads
system.switch_cpus0.fp_regfile_reads          6381830                       # number of floating regfile reads
system.switch_cpus0.fp_regfile_writes         6349135                       # number of floating regfile writes
system.switch_cpus0.idleCycles                  49865                       # Total number of cycles that the CPU has spent unscheduled due to idling
system.switch_cpus0.iew.branchMispredicts      3375467                       # Number of branch mispredicts detected at execute
system.switch_cpus0.iew.exec_branches        39344323                       # Number of branches executed
system.switch_cpus0.iew.exec_nop                    0                       # number of nop insts executed
system.switch_cpus0.iew.exec_rate            2.239949                       # Inst execution rate
system.switch_cpus0.iew.exec_refs            85808777                       # number of memory reference insts executed
system.switch_cpus0.iew.exec_stores          26455669                       # Number of stores executed
system.switch_cpus0.iew.exec_swp                    0                       # number of swp insts executed
system.switch_cpus0.iew.iewBlockCycles       41448821                       # Number of cycles IEW is blocking
system.switch_cpus0.iew.iewDispLoadInsts     69488364                       # Number of dispatched load instructions
system.switch_cpus0.iew.iewDispNonSpecInsts            0                       # Number of dispatched non-speculative instructions
system.switch_cpus0.iew.iewDispSquashedInsts         7627                       # Number of squashed instructions skipped by dispatch
system.switch_cpus0.iew.iewDispStoreInsts     37375175                       # Number of dispatched store instructions
system.switch_cpus0.iew.iewDispatchedInsts    622566823                       # Number of instructions dispatched to IQ
system.switch_cpus0.iew.iewExecLoadInsts     59353108                       # Number of load instructions executed
system.switch_cpus0.iew.iewExecSquashedInsts      6091263                       # Number of squashed instructions skipped in execute
system.switch_cpus0.iew.iewExecutedInsts    493406761                       # Number of executed instructions
system.switch_cpus0.iew.iewIQFullEvents        135807                       # Number of times the IQ has become full, causing a stall
system.switch_cpus0.iew.iewIdleCycles               0                       # Number of cycles IEW is idle
system.switch_cpus0.iew.iewLSQFullEvents       666361                       # Number of times the LSQ has become full, causing a stall
system.switch_cpus0.iew.iewSquashCycles       3297105                       # Number of cycles IEW is squashing
system.switch_cpus0.iew.iewUnblockCycles       784069                       # Number of cycles IEW is unblocking
system.switch_cpus0.iew.memOrderViolationEvents        19504                       # Number of memory order violations
system.switch_cpus0.iew.predictedNotTakenIncorrect      1332021                       # Number of branches that were predicted not taken incorrectly
system.switch_cpus0.iew.predictedTakenIncorrect      2043446                       # Number of branches that were predicted taken incorrectly
system.switch_cpus0.iew.wb_consumers        720052928                       # num instructions consuming a value
system.switch_cpus0.iew.wb_count            488629822                       # cumulative count of insts written-back
system.switch_cpus0.iew.wb_fanout            0.543069                       # average fanout of values written-back
system.switch_cpus0.iew.wb_producers        391038623                       # num instructions producing a value
system.switch_cpus0.iew.wb_rate              2.218262                       # insts written-back per cycle
system.switch_cpus0.iew.wb_sent             492863444                       # cumulative count of insts sent to commit
system.switch_cpus0.int_regfile_reads       794288096                       # number of integer regfile reads
system.switch_cpus0.int_regfile_writes      426872679                       # number of integer regfile writes
system.switch_cpus0.ipc                      1.134940                       # IPC: Instructions Per Cycle
system.switch_cpus0.ipc_total                1.134940                       # IPC: Total IPC of All Threads
system.switch_cpus0.iq.FU_type_0::No_OpClass      3143813      0.63%      0.63% # Type of FU issued
system.switch_cpus0.iq.FU_type_0::IntAlu    398562545     79.79%     80.42% # Type of FU issued
system.switch_cpus0.iq.FU_type_0::IntMult      9295949      1.86%     82.28% # Type of FU issued
system.switch_cpus0.iq.FU_type_0::IntDiv            0      0.00%     82.28% # Type of FU issued
system.switch_cpus0.iq.FU_type_0::FloatAdd            0      0.00%     82.28% # Type of FU issued
system.switch_cpus0.iq.FU_type_0::FloatCmp            0      0.00%     82.28% # Type of FU issued
system.switch_cpus0.iq.FU_type_0::FloatCvt            0      0.00%     82.28% # Type of FU issued
system.switch_cpus0.iq.FU_type_0::FloatMult            0      0.00%     82.28% # Type of FU issued
system.switch_cpus0.iq.FU_type_0::FloatMultAcc            0      0.00%     82.28% # Type of FU issued
system.switch_cpus0.iq.FU_type_0::FloatDiv            0      0.00%     82.28% # Type of FU issued
system.switch_cpus0.iq.FU_type_0::FloatMisc            0      0.00%     82.28% # Type of FU issued
system.switch_cpus0.iq.FU_type_0::FloatSqrt            0      0.00%     82.28% # Type of FU issued
system.switch_cpus0.iq.FU_type_0::SimdAdd            0      0.00%     82.28% # Type of FU issued
system.switch_cpus0.iq.FU_type_0::SimdAddAcc            0      0.00%     82.28% # Type of FU issued
system.switch_cpus0.iq.FU_type_0::SimdAlu            0      0.00%     82.28% # Type of FU issued
system.switch_cpus0.iq.FU_type_0::SimdCmp            0      0.00%     82.28% # Type of FU issued
system.switch_cpus0.iq.FU_type_0::SimdCvt            0      0.00%     82.28% # Type of FU issued
system.switch_cpus0.iq.FU_type_0::SimdMisc            0      0.00%     82.28% # Type of FU issued
system.switch_cpus0.iq.FU_type_0::SimdMult            0      0.00%     82.28% # Type of FU issued
system.switch_cpus0.iq.FU_type_0::SimdMultAcc            0      0.00%     82.28% # Type of FU issued
system.switch_cpus0.iq.FU_type_0::SimdShift            0      0.00%     82.28% # Type of FU issued
system.switch_cpus0.iq.FU_type_0::SimdShiftAcc            0      0.00%     82.28% # Type of FU issued
system.switch_cpus0.iq.FU_type_0::SimdDiv            0      0.00%     82.28% # Type of FU issued
system.switch_cpus0.iq.FU_type_0::SimdSqrt            0      0.00%     82.28% # Type of FU issued
system.switch_cpus0.iq.FU_type_0::SimdFloatAdd            0      0.00%     82.28% # Type of FU issued
system.switch_cpus0.iq.FU_type_0::SimdFloatAlu            0      0.00%     82.28% # Type of FU issued
system.switch_cpus0.iq.FU_type_0::SimdFloatCmp            0      0.00%     82.28% # Type of FU issued
system.switch_cpus0.iq.FU_type_0::SimdFloatCvt            0      0.00%     82.28% # Type of FU issued
system.switch_cpus0.iq.FU_type_0::SimdFloatDiv            0      0.00%     82.28% # Type of FU issued
system.switch_cpus0.iq.FU_type_0::SimdFloatMisc            0      0.00%     82.28% # Type of FU issued
system.switch_cpus0.iq.FU_type_0::SimdFloatMult            0      0.00%     82.28% # Type of FU issued
system.switch_cpus0.iq.FU_type_0::SimdFloatMultAcc            0      0.00%     82.28% # Type of FU issued
system.switch_cpus0.iq.FU_type_0::SimdFloatSqrt            0      0.00%     82.28% # Type of FU issued
system.switch_cpus0.iq.FU_type_0::SimdReduceAdd            0      0.00%     82.28% # Type of FU issued
system.switch_cpus0.iq.FU_type_0::SimdReduceAlu            0      0.00%     82.28% # Type of FU issued
system.switch_cpus0.iq.FU_type_0::SimdReduceCmp            0      0.00%     82.28% # Type of FU issued
system.switch_cpus0.iq.FU_type_0::SimdFloatReduceAdd            0      0.00%     82.28% # Type of FU issued
system.switch_cpus0.iq.FU_type_0::SimdFloatReduceCmp            0      0.00%     82.28% # Type of FU issued
system.switch_cpus0.iq.FU_type_0::SimdAes            0      0.00%     82.28% # Type of FU issued
system.switch_cpus0.iq.FU_type_0::SimdAesMix            0      0.00%     82.28% # Type of FU issued
system.switch_cpus0.iq.FU_type_0::SimdSha1Hash            0      0.00%     82.28% # Type of FU issued
system.switch_cpus0.iq.FU_type_0::SimdSha1Hash2            0      0.00%     82.28% # Type of FU issued
system.switch_cpus0.iq.FU_type_0::SimdSha256Hash            0      0.00%     82.28% # Type of FU issued
system.switch_cpus0.iq.FU_type_0::SimdSha256Hash2            0      0.00%     82.28% # Type of FU issued
system.switch_cpus0.iq.FU_type_0::SimdShaSigma2            0      0.00%     82.28% # Type of FU issued
system.switch_cpus0.iq.FU_type_0::SimdShaSigma3            0      0.00%     82.28% # Type of FU issued
system.switch_cpus0.iq.FU_type_0::SimdPredAlu            0      0.00%     82.28% # Type of FU issued
system.switch_cpus0.iq.FU_type_0::MemRead     54108999     10.83%     93.12% # Type of FU issued
system.switch_cpus0.iq.FU_type_0::MemWrite     21563441      4.32%     97.43% # Type of FU issued
system.switch_cpus0.iq.FU_type_0::FloatMemRead      6427504      1.29%     98.72% # Type of FU issued
system.switch_cpus0.iq.FU_type_0::FloatMemWrite      6395775      1.28%    100.00% # Type of FU issued
system.switch_cpus0.iq.FU_type_0::IprAccess            0      0.00%    100.00% # Type of FU issued
system.switch_cpus0.iq.FU_type_0::InstPrefetch            0      0.00%    100.00% # Type of FU issued
system.switch_cpus0.iq.FU_type_0::total     499498026                       # Type of FU issued
system.switch_cpus0.iq.fp_alu_accesses       15594774                       # Number of floating point alu accesses
system.switch_cpus0.iq.fp_inst_queue_reads     28424777                       # Number of floating instruction queue reads
system.switch_cpus0.iq.fp_inst_queue_wakeup_accesses     12711186                       # Number of floating instruction queue wakeup accesses
system.switch_cpus0.iq.fp_inst_queue_writes     24765464                       # Number of floating instruction queue writes
system.switch_cpus0.iq.fu_busy_cnt            7858142                       # FU busy when requested
system.switch_cpus0.iq.fu_busy_rate          0.015732                       # FU busy rate (busy events/executed inst)
system.switch_cpus0.iq.fu_full::No_OpClass            0      0.00%      0.00% # attempts to use FU when none available
system.switch_cpus0.iq.fu_full::IntAlu        3193250     40.64%     40.64% # attempts to use FU when none available
system.switch_cpus0.iq.fu_full::IntMult             0      0.00%     40.64% # attempts to use FU when none available
system.switch_cpus0.iq.fu_full::IntDiv              0      0.00%     40.64% # attempts to use FU when none available
system.switch_cpus0.iq.fu_full::FloatAdd            0      0.00%     40.64% # attempts to use FU when none available
system.switch_cpus0.iq.fu_full::FloatCmp            0      0.00%     40.64% # attempts to use FU when none available
system.switch_cpus0.iq.fu_full::FloatCvt            0      0.00%     40.64% # attempts to use FU when none available
system.switch_cpus0.iq.fu_full::FloatMult            0      0.00%     40.64% # attempts to use FU when none available
system.switch_cpus0.iq.fu_full::FloatMultAcc            0      0.00%     40.64% # attempts to use FU when none available
system.switch_cpus0.iq.fu_full::FloatDiv            0      0.00%     40.64% # attempts to use FU when none available
system.switch_cpus0.iq.fu_full::FloatMisc            0      0.00%     40.64% # attempts to use FU when none available
system.switch_cpus0.iq.fu_full::FloatSqrt            0      0.00%     40.64% # attempts to use FU when none available
system.switch_cpus0.iq.fu_full::SimdAdd             0      0.00%     40.64% # attempts to use FU when none available
system.switch_cpus0.iq.fu_full::SimdAddAcc            0      0.00%     40.64% # attempts to use FU when none available
system.switch_cpus0.iq.fu_full::SimdAlu             0      0.00%     40.64% # attempts to use FU when none available
system.switch_cpus0.iq.fu_full::SimdCmp             0      0.00%     40.64% # attempts to use FU when none available
system.switch_cpus0.iq.fu_full::SimdCvt             0      0.00%     40.64% # attempts to use FU when none available
system.switch_cpus0.iq.fu_full::SimdMisc            0      0.00%     40.64% # attempts to use FU when none available
system.switch_cpus0.iq.fu_full::SimdMult            0      0.00%     40.64% # attempts to use FU when none available
system.switch_cpus0.iq.fu_full::SimdMultAcc            0      0.00%     40.64% # attempts to use FU when none available
system.switch_cpus0.iq.fu_full::SimdShift            0      0.00%     40.64% # attempts to use FU when none available
system.switch_cpus0.iq.fu_full::SimdShiftAcc            0      0.00%     40.64% # attempts to use FU when none available
system.switch_cpus0.iq.fu_full::SimdDiv             0      0.00%     40.64% # attempts to use FU when none available
system.switch_cpus0.iq.fu_full::SimdSqrt            0      0.00%     40.64% # attempts to use FU when none available
system.switch_cpus0.iq.fu_full::SimdFloatAdd            0      0.00%     40.64% # attempts to use FU when none available
system.switch_cpus0.iq.fu_full::SimdFloatAlu            0      0.00%     40.64% # attempts to use FU when none available
system.switch_cpus0.iq.fu_full::SimdFloatCmp            0      0.00%     40.64% # attempts to use FU when none available
system.switch_cpus0.iq.fu_full::SimdFloatCvt            0      0.00%     40.64% # attempts to use FU when none available
system.switch_cpus0.iq.fu_full::SimdFloatDiv            0      0.00%     40.64% # attempts to use FU when none available
system.switch_cpus0.iq.fu_full::SimdFloatMisc            0      0.00%     40.64% # attempts to use FU when none available
system.switch_cpus0.iq.fu_full::SimdFloatMult            0      0.00%     40.64% # attempts to use FU when none available
system.switch_cpus0.iq.fu_full::SimdFloatMultAcc            0      0.00%     40.64% # attempts to use FU when none available
system.switch_cpus0.iq.fu_full::SimdFloatSqrt            0      0.00%     40.64% # attempts to use FU when none available
system.switch_cpus0.iq.fu_full::SimdReduceAdd            0      0.00%     40.64% # attempts to use FU when none available
system.switch_cpus0.iq.fu_full::SimdReduceAlu            0      0.00%     40.64% # attempts to use FU when none available
system.switch_cpus0.iq.fu_full::SimdReduceCmp            0      0.00%     40.64% # attempts to use FU when none available
system.switch_cpus0.iq.fu_full::SimdFloatReduceAdd            0      0.00%     40.64% # attempts to use FU when none available
system.switch_cpus0.iq.fu_full::SimdFloatReduceCmp            0      0.00%     40.64% # attempts to use FU when none available
system.switch_cpus0.iq.fu_full::SimdAes             0      0.00%     40.64% # attempts to use FU when none available
system.switch_cpus0.iq.fu_full::SimdAesMix            0      0.00%     40.64% # attempts to use FU when none available
system.switch_cpus0.iq.fu_full::SimdSha1Hash            0      0.00%     40.64% # attempts to use FU when none available
system.switch_cpus0.iq.fu_full::SimdSha1Hash2            0      0.00%     40.64% # attempts to use FU when none available
system.switch_cpus0.iq.fu_full::SimdSha256Hash            0      0.00%     40.64% # attempts to use FU when none available
system.switch_cpus0.iq.fu_full::SimdSha256Hash2            0      0.00%     40.64% # attempts to use FU when none available
system.switch_cpus0.iq.fu_full::SimdShaSigma2            0      0.00%     40.64% # attempts to use FU when none available
system.switch_cpus0.iq.fu_full::SimdShaSigma3            0      0.00%     40.64% # attempts to use FU when none available
system.switch_cpus0.iq.fu_full::SimdPredAlu            0      0.00%     40.64% # attempts to use FU when none available
system.switch_cpus0.iq.fu_full::MemRead        338519      4.31%     44.94% # attempts to use FU when none available
system.switch_cpus0.iq.fu_full::MemWrite      1554878     19.79%     64.73% # attempts to use FU when none available
system.switch_cpus0.iq.fu_full::FloatMemRead      1937342     24.65%     89.38% # attempts to use FU when none available
system.switch_cpus0.iq.fu_full::FloatMemWrite       834153     10.62%    100.00% # attempts to use FU when none available
system.switch_cpus0.iq.fu_full::IprAccess            0      0.00%    100.00% # attempts to use FU when none available
system.switch_cpus0.iq.fu_full::InstPrefetch            0      0.00%    100.00% # attempts to use FU when none available
system.switch_cpus0.iq.int_alu_accesses     488617581                       # Number of integer alu accesses
system.switch_cpus0.iq.int_inst_queue_reads   1198873707                       # Number of integer instruction queue reads
system.switch_cpus0.iq.int_inst_queue_wakeup_accesses    475918636                       # Number of integer instruction queue wakeup accesses
system.switch_cpus0.iq.int_inst_queue_writes    857642607                       # Number of integer instruction queue writes
system.switch_cpus0.iq.iqInstsAdded         622553607                       # Number of instructions added to the IQ (excludes non-spec)
system.switch_cpus0.iq.iqInstsIssued        499498026                       # Number of instructions issued
system.switch_cpus0.iq.iqNonSpecInstsAdded        13216                       # Number of non-speculative instructions added to the IQ
system.switch_cpus0.iq.iqSquashedInstsExamined    259822067                       # Number of squashed instructions iterated over during squash; mainly for profiling
system.switch_cpus0.iq.iqSquashedInstsIssued       218221                       # Number of squashed instructions issued
system.switch_cpus0.iq.iqSquashedNonSpecRemoved        12618                       # Number of squashed non-spec instructions that were removed
system.switch_cpus0.iq.iqSquashedOperandsExamined    409619727                       # Number of squashed operands that are examined and possibly removed from graph
system.switch_cpus0.iq.issued_per_cycle::samples    220226071                       # Number of insts issued each cycle
system.switch_cpus0.iq.issued_per_cycle::mean     2.268115                       # Number of insts issued each cycle
system.switch_cpus0.iq.issued_per_cycle::stdev     2.224810                       # Number of insts issued each cycle
system.switch_cpus0.iq.issued_per_cycle::underflows            0      0.00%      0.00% # Number of insts issued each cycle
system.switch_cpus0.iq.issued_per_cycle::0     78480071     35.64%     35.64% # Number of insts issued each cycle
system.switch_cpus0.iq.issued_per_cycle::1     21310745      9.68%     45.31% # Number of insts issued each cycle
system.switch_cpus0.iq.issued_per_cycle::2     24464306     11.11%     56.42% # Number of insts issued each cycle
system.switch_cpus0.iq.issued_per_cycle::3     29265721     13.29%     69.71% # Number of insts issued each cycle
system.switch_cpus0.iq.issued_per_cycle::4     27123863     12.32%     82.03% # Number of insts issued each cycle
system.switch_cpus0.iq.issued_per_cycle::5     17343845      7.88%     89.90% # Number of insts issued each cycle
system.switch_cpus0.iq.issued_per_cycle::6     12225195      5.55%     95.45% # Number of insts issued each cycle
system.switch_cpus0.iq.issued_per_cycle::7      7202941      3.27%     98.72% # Number of insts issued each cycle
system.switch_cpus0.iq.issued_per_cycle::8      2809384      1.28%    100.00% # Number of insts issued each cycle
system.switch_cpus0.iq.issued_per_cycle::overflows            0      0.00%    100.00% # Number of insts issued each cycle
system.switch_cpus0.iq.issued_per_cycle::min_value            0                       # Number of insts issued each cycle
system.switch_cpus0.iq.issued_per_cycle::max_value            8                       # Number of insts issued each cycle
system.switch_cpus0.iq.issued_per_cycle::total    220226071                       # Number of insts issued each cycle
system.switch_cpus0.iq.rate                  2.267601                       # Inst issue rate
system.switch_cpus0.iq.vec_alu_accesses             0                       # Number of vector alu accesses
system.switch_cpus0.iq.vec_inst_queue_reads            0                       # Number of vector instruction queue reads
system.switch_cpus0.iq.vec_inst_queue_wakeup_accesses            0                       # Number of vector instruction queue wakeup accesses
system.switch_cpus0.iq.vec_inst_queue_writes            0                       # Number of vector instruction queue writes
system.switch_cpus0.memDep0.conflictingLoads     10442424                       # Number of conflicting loads.
system.switch_cpus0.memDep0.conflictingStores       629019                       # Number of conflicting stores.
system.switch_cpus0.memDep0.insertedLoads     69488364                       # Number of loads inserted to the mem dependence unit.
system.switch_cpus0.memDep0.insertedStores     37375175                       # Number of stores inserted to the mem dependence unit.
system.switch_cpus0.misc_regfile_reads      175932841                       # number of misc regfile reads
system.switch_cpus0.misc_regfile_writes             1                       # number of misc regfile writes
system.switch_cpus0.numCycles               220275936                       # number of cpu cycles simulated
system.switch_cpus0.numWorkItemsCompleted            0                       # number of work items this cpu completed
system.switch_cpus0.numWorkItemsStarted             0                       # number of work items this cpu started
system.switch_cpus0.timesIdled                    227                       # Number of times that the entire CPU went into an idle state and unscheduled itself
system.switch_cpus1.cc_regfile_reads        213992633                       # number of cc regfile reads
system.switch_cpus1.cc_regfile_writes       252657137                       # number of cc regfile writes
system.switch_cpus1.committedInsts          250000001                       # Number of Instructions Simulated
system.switch_cpus1.committedOps            362744697                       # Number of Ops (including micro ops) Simulated
system.switch_cpus1.cpi                      0.881104                       # CPI: Cycles Per Instruction
system.switch_cpus1.cpi_total                0.881104                       # CPI: Total CPI of All Threads
system.switch_cpus1.fp_regfile_reads          6381878                       # number of floating regfile reads
system.switch_cpus1.fp_regfile_writes         6349402                       # number of floating regfile writes
system.switch_cpus1.idleCycles                  50130                       # Total number of cycles that the CPU has spent unscheduled due to idling
system.switch_cpus1.iew.branchMispredicts      3375639                       # Number of branch mispredicts detected at execute
system.switch_cpus1.iew.exec_branches        39344292                       # Number of branches executed
system.switch_cpus1.iew.exec_nop                    0                       # number of nop insts executed
system.switch_cpus1.iew.exec_rate            2.239921                       # Inst execution rate
system.switch_cpus1.iew.exec_refs            85804602                       # number of memory reference insts executed
system.switch_cpus1.iew.exec_stores          26454988                       # Number of stores executed
system.switch_cpus1.iew.exec_swp                    0                       # number of swp insts executed
system.switch_cpus1.iew.iewBlockCycles       41455221                       # Number of cycles IEW is blocking
system.switch_cpus1.iew.iewDispLoadInsts     69488463                       # Number of dispatched load instructions
system.switch_cpus1.iew.iewDispNonSpecInsts            0                       # Number of dispatched non-speculative instructions
system.switch_cpus1.iew.iewDispSquashedInsts         7615                       # Number of squashed instructions skipped by dispatch
system.switch_cpus1.iew.iewDispStoreInsts     37375236                       # Number of dispatched store instructions
system.switch_cpus1.iew.iewDispatchedInsts    622562949                       # Number of instructions dispatched to IQ
system.switch_cpus1.iew.iewExecLoadInsts     59349614                       # Number of load instructions executed
system.switch_cpus1.iew.iewExecSquashedInsts      6090652                       # Number of squashed instructions skipped in execute
system.switch_cpus1.iew.iewExecutedInsts    493400760                       # Number of executed instructions
system.switch_cpus1.iew.iewIQFullEvents        135912                       # Number of times the IQ has become full, causing a stall
system.switch_cpus1.iew.iewIdleCycles               0                       # Number of cycles IEW is idle
system.switch_cpus1.iew.iewLSQFullEvents       671879                       # Number of times the LSQ has become full, causing a stall
system.switch_cpus1.iew.iewSquashCycles       3297198                       # Number of cycles IEW is squashing
system.switch_cpus1.iew.iewUnblockCycles       789690                       # Number of cycles IEW is unblocking
system.switch_cpus1.iew.memOrderViolationEvents        19467                       # Number of memory order violations
system.switch_cpus1.iew.predictedNotTakenIncorrect      1332120                       # Number of branches that were predicted not taken incorrectly
system.switch_cpus1.iew.predictedTakenIncorrect      2043519                       # Number of branches that were predicted taken incorrectly
system.switch_cpus1.iew.wb_consumers        720049097                       # num instructions consuming a value
system.switch_cpus1.iew.wb_count            488624051                       # cumulative count of insts written-back
system.switch_cpus1.iew.wb_fanout            0.543065                       # average fanout of values written-back
system.switch_cpus1.iew.wb_producers        391033358                       # num instructions producing a value
system.switch_cpus1.iew.wb_rate              2.218236                       # insts written-back per cycle
system.switch_cpus1.iew.wb_sent             492857640                       # cumulative count of insts sent to commit
system.switch_cpus1.int_regfile_reads       794277089                       # number of integer regfile reads
system.switch_cpus1.int_regfile_writes      426867184                       # number of integer regfile writes
system.switch_cpus1.ipc                      1.134940                       # IPC: Instructions Per Cycle
system.switch_cpus1.ipc_total                1.134940                       # IPC: Total IPC of All Threads
system.switch_cpus1.iq.FU_type_0::No_OpClass      3143924      0.63%      0.63% # Type of FU issued
system.switch_cpus1.iq.FU_type_0::IntAlu    398560774     79.79%     80.42% # Type of FU issued
system.switch_cpus1.iq.FU_type_0::IntMult      9295921      1.86%     82.28% # Type of FU issued
system.switch_cpus1.iq.FU_type_0::IntDiv            0      0.00%     82.28% # Type of FU issued
system.switch_cpus1.iq.FU_type_0::FloatAdd            0      0.00%     82.28% # Type of FU issued
system.switch_cpus1.iq.FU_type_0::FloatCmp            0      0.00%     82.28% # Type of FU issued
system.switch_cpus1.iq.FU_type_0::FloatCvt            0      0.00%     82.28% # Type of FU issued
system.switch_cpus1.iq.FU_type_0::FloatMult            0      0.00%     82.28% # Type of FU issued
system.switch_cpus1.iq.FU_type_0::FloatMultAcc            0      0.00%     82.28% # Type of FU issued
system.switch_cpus1.iq.FU_type_0::FloatDiv            0      0.00%     82.28% # Type of FU issued
system.switch_cpus1.iq.FU_type_0::FloatMisc            0      0.00%     82.28% # Type of FU issued
system.switch_cpus1.iq.FU_type_0::FloatSqrt            0      0.00%     82.28% # Type of FU issued
system.switch_cpus1.iq.FU_type_0::SimdAdd            0      0.00%     82.28% # Type of FU issued
system.switch_cpus1.iq.FU_type_0::SimdAddAcc            0      0.00%     82.28% # Type of FU issued
system.switch_cpus1.iq.FU_type_0::SimdAlu            0      0.00%     82.28% # Type of FU issued
system.switch_cpus1.iq.FU_type_0::SimdCmp            0      0.00%     82.28% # Type of FU issued
system.switch_cpus1.iq.FU_type_0::SimdCvt            0      0.00%     82.28% # Type of FU issued
system.switch_cpus1.iq.FU_type_0::SimdMisc            0      0.00%     82.28% # Type of FU issued
system.switch_cpus1.iq.FU_type_0::SimdMult            0      0.00%     82.28% # Type of FU issued
system.switch_cpus1.iq.FU_type_0::SimdMultAcc            0      0.00%     82.28% # Type of FU issued
system.switch_cpus1.iq.FU_type_0::SimdShift            0      0.00%     82.28% # Type of FU issued
system.switch_cpus1.iq.FU_type_0::SimdShiftAcc            0      0.00%     82.28% # Type of FU issued
system.switch_cpus1.iq.FU_type_0::SimdDiv            0      0.00%     82.28% # Type of FU issued
system.switch_cpus1.iq.FU_type_0::SimdSqrt            0      0.00%     82.28% # Type of FU issued
system.switch_cpus1.iq.FU_type_0::SimdFloatAdd            0      0.00%     82.28% # Type of FU issued
system.switch_cpus1.iq.FU_type_0::SimdFloatAlu            0      0.00%     82.28% # Type of FU issued
system.switch_cpus1.iq.FU_type_0::SimdFloatCmp            0      0.00%     82.28% # Type of FU issued
system.switch_cpus1.iq.FU_type_0::SimdFloatCvt            0      0.00%     82.28% # Type of FU issued
system.switch_cpus1.iq.FU_type_0::SimdFloatDiv            0      0.00%     82.28% # Type of FU issued
system.switch_cpus1.iq.FU_type_0::SimdFloatMisc            0      0.00%     82.28% # Type of FU issued
system.switch_cpus1.iq.FU_type_0::SimdFloatMult            0      0.00%     82.28% # Type of FU issued
system.switch_cpus1.iq.FU_type_0::SimdFloatMultAcc            0      0.00%     82.28% # Type of FU issued
system.switch_cpus1.iq.FU_type_0::SimdFloatSqrt            0      0.00%     82.28% # Type of FU issued
system.switch_cpus1.iq.FU_type_0::SimdReduceAdd            0      0.00%     82.28% # Type of FU issued
system.switch_cpus1.iq.FU_type_0::SimdReduceAlu            0      0.00%     82.28% # Type of FU issued
system.switch_cpus1.iq.FU_type_0::SimdReduceCmp            0      0.00%     82.28% # Type of FU issued
system.switch_cpus1.iq.FU_type_0::SimdFloatReduceAdd            0      0.00%     82.28% # Type of FU issued
system.switch_cpus1.iq.FU_type_0::SimdFloatReduceCmp            0      0.00%     82.28% # Type of FU issued
[...]
system.switch_cpus3.commit.numCommittedDist::0     74197052     39.67%     39.67% # Number of insts commited each cycle
system.switch_cpus3.commit.numCommittedDist::1     43596971     23.31%     62.98% # Number of insts commited each cycle
system.switch_cpus3.commit.numCommittedDist::2      9696507      5.18%     68.16% # Number of insts commited each cycle
system.switch_cpus3.commit.numCommittedDist::3     24780841     13.25%     81.41% # Number of insts commited each cycle
system.switch_cpus3.commit.numCommittedDist::4      8354049      4.47%     85.88% # Number of insts commited each cycle
system.switch_cpus3.commit.numCommittedDist::5      4534855      2.42%     88.30% # Number of insts commited each cycle
system.switch_cpus3.commit.numCommittedDist::6      2081231      1.11%     89.41% # Number of insts commited each cycle
system.switch_cpus3.commit.numCommittedDist::7      1747085      0.93%     90.35% # Number of insts commited each cycle
system.switch_cpus3.commit.numCommittedDist::8     18053471      9.65%    100.00% # Number of insts commited each cycle
system.switch_cpus3.commit.numCommittedDist::overflows            0      0.00%    100.00% # Number of insts commited each cycle
system.switch_cpus3.commit.numCommittedDist::min_value            0                       # Number of insts commited each cycle
system.switch_cpus3.commit.numCommittedDist::max_value            8                       # Number of insts commited each cycle
system.switch_cpus3.commit.numCommittedDist::total    187042062                       # Number of insts commited each cycle
system.switch_cpus3.commit.instsCommitted    249877555                       # Number of instructions committed
system.switch_cpus3.commit.opsCommitted     362567728                       # Number of ops (including micro ops) committed
system.switch_cpus3.commit.memRefs           52961146                       # Number of memory references committed
system.switch_cpus3.commit.loads             36981654                       # Number of loads committed
system.switch_cpus3.commit.amos                     0                       # Number of atomic instructions committed
system.switch_cpus3.commit.membars                  0                       # Number of memory barriers committed
system.switch_cpus3.commit.branches          29663461                       # Number of branches committed
system.switch_cpus3.commit.vector                   0                       # Number of committed Vector instructions.
system.switch_cpus3.commit.floating           1294982                       # Number of committed floating point instructions.
system.switch_cpus3.commit.integer          362566332                       # Number of committed integer instructions.
system.switch_cpus3.commit.functionCalls        66802                       # Number of function calls committed.
system.switch_cpus3.commit.committedInstType_0::No_OpClass          668      0.00%      0.00% # Class of committed instruction
system.switch_cpus3.commit.committedInstType_0::IntAlu    300638607     82.92%     82.92% # Class of committed instruction
system.switch_cpus3.commit.committedInstType_0::IntMult      8967307      2.47%     85.39% # Class of committed instruction
system.switch_cpus3.commit.committedInstType_0::IntDiv            0      0.00%     85.39% # Class of committed instruction
system.switch_cpus3.commit.committedInstType_0::FloatAdd            0      0.00%     85.39% # Class of committed instruction
system.switch_cpus3.commit.committedInstType_0::FloatCmp            0      0.00%     85.39% # Class of committed instruction
system.switch_cpus3.commit.committedInstType_0::FloatCvt            0      0.00%     85.39% # Class of committed instruction
system.switch_cpus3.commit.committedInstType_0::FloatMult            0      0.00%     85.39% # Class of committed instruction
system.switch_cpus3.commit.committedInstType_0::FloatMultAcc            0      0.00%     85.39% # Class of committed instruction
system.switch_cpus3.commit.committedInstType_0::FloatDiv            0      0.00%     85.39% # Class of committed instruction
system.switch_cpus3.commit.committedInstType_0::FloatMisc            0      0.00%     85.39% # Class of committed instruction
system.switch_cpus3.commit.committedInstType_0::FloatSqrt            0      0.00%     85.39% # Class of committed instruction
system.switch_cpus3.commit.committedInstType_0::SimdAdd            0      0.00%     85.39% # Class of committed instruction
system.switch_cpus3.commit.committedInstType_0::SimdAddAcc            0      0.00%     85.39% # Class of committed instruction
system.switch_cpus3.commit.committedInstType_0::SimdAlu            0      0.00%     85.39% # Class of committed instruction
system.switch_cpus3.commit.committedInstType_0::SimdCmp            0      0.00%     85.39% # Class of committed instruction
system.switch_cpus3.commit.committedInstType_0::SimdCvt            0      0.00%     85.39% # Class of committed instruction
system.switch_cpus3.commit.committedInstType_0::SimdMisc            0      0.00%     85.39% # Class of committed instruction
system.switch_cpus3.commit.committedInstType_0::SimdMult            0      0.00%     85.39% # Class of committed instruction
system.switch_cpus3.commit.committedInstType_0::SimdMultAcc            0      0.00%     85.39% # Class of committed instruction
system.switch_cpus3.commit.committedInstType_0::SimdShift            0      0.00%     85.39% # Class of committed instruction
system.switch_cpus3.commit.committedInstType_0::SimdShiftAcc            0      0.00%     85.39% # Class of committed instruction
system.switch_cpus3.commit.committedInstType_0::SimdDiv            0      0.00%     85.39% # Class of committed instruction
system.switch_cpus3.commit.committedInstType_0::SimdSqrt            0      0.00%     85.39% # Class of committed instruction
system.switch_cpus3.commit.committedInstType_0::SimdFloatAdd            0      0.00%     85.39% # Class of committed instruction
system.switch_cpus3.commit.committedInstType_0::SimdFloatAlu            0      0.00%     85.39% # Class of committed instruction
system.switch_cpus3.commit.committedInstType_0::SimdFloatCmp            0      0.00%     85.39% # Class of committed instruction
system.switch_cpus3.commit.committedInstType_0::SimdFloatCvt            0      0.00%     85.39% # Class of committed instruction
system.switch_cpus3.commit.committedInstType_0::SimdFloatDiv            0      0.00%     85.39% # Class of committed instruction
system.switch_cpus3.commit.committedInstType_0::SimdFloatMisc            0      0.00%     85.39% # Class of committed instruction
system.switch_cpus3.commit.committedInstType_0::SimdFloatMult            0      0.00%     85.39% # Class of committed instruction
system.switch_cpus3.commit.committedInstType_0::SimdFloatMultAcc            0      0.00%     85.39% # Class of committed instruction
system.switch_cpus3.commit.committedInstType_0::SimdFloatSqrt            0      0.00%     85.39% # Class of committed instruction
system.switch_cpus3.commit.committedInstType_0::SimdReduceAdd            0      0.00%     85.39% # Class of committed instruction
system.switch_cpus3.commit.committedInstType_0::SimdReduceAlu            0      0.00%     85.39% # Class of committed instruction
system.switch_cpus3.commit.committedInstType_0::SimdReduceCmp            0      0.00%     85.39% # Class of committed instruction
system.switch_cpus3.commit.committedInstType_0::SimdFloatReduceAdd            0      0.00%     85.39% # Class of committed instruction
system.switch_cpus3.commit.committedInstType_0::SimdFloatReduceCmp            0      0.00%     85.39% # Class of committed instruction
system.switch_cpus3.commit.committedInstType_0::SimdAes            0      0.00%     85.39% # Class of committed instruction
system.switch_cpus3.commit.committedInstType_0::SimdAesMix            0      0.00%     85.39% # Class of committed instruction
system.switch_cpus3.commit.committedInstType_0::SimdSha1Hash            0      0.00%     85.39% # Class of committed instruction
system.switch_cpus3.commit.committedInstType_0::SimdSha1Hash2            0      0.00%     85.39% # Class of committed instruction
system.switch_cpus3.commit.committedInstType_0::SimdSha256Hash            0      0.00%     85.39% # Class of committed instruction
system.switch_cpus3.commit.committedInstType_0::SimdSha256Hash2            0      0.00%     85.39% # Class of committed instruction
system.switch_cpus3.commit.committedInstType_0::SimdShaSigma2            0      0.00%     85.39% # Class of committed instruction
system.switch_cpus3.commit.committedInstType_0::SimdShaSigma3            0      0.00%     85.39% # Class of committed instruction
system.switch_cpus3.commit.committedInstType_0::SimdPredAlu            0      0.00%     85.39% # Class of committed instruction
system.switch_cpus3.commit.committedInstType_0::MemRead     36334172     10.02%     95.41% # Class of committed instruction
system.switch_cpus3.commit.committedInstType_0::MemWrite     15331992      4.23%     99.64% # Class of committed instruction
system.switch_cpus3.commit.committedInstType_0::FloatMemRead       647482      0.18%     99.82% # Class of committed instruction
system.switch_cpus3.commit.committedInstType_0::FloatMemWrite       647500      0.18%    100.00% # Class of committed instruction
system.switch_cpus3.commit.committedInstType_0::IprAccess            0      0.00%    100.00% # Class of committed instruction
system.switch_cpus3.commit.committedInstType_0::InstPrefetch            0      0.00%    100.00% # Class of committed instruction
system.switch_cpus3.commit.committedInstType_0::total    362567728                       # Class of committed instruction
system.switch_cpus3.commit.commitEligibleSamples     18053471                       # number cycles where commit BW limit reached
system.switch_cpus3.decode.idleCycles        18836244                       # Number of cycles decode is idle
system.switch_cpus3.decode.blockedCycles    105644228                       # Number of cycles decode is blocked
system.switch_cpus3.decode.runCycles         62080503                       # Number of cycles decode is running
system.switch_cpus3.decode.unblockCycles     30365778                       # Number of cycles decode is unblocking
system.switch_cpus3.decode.squashCycles       3295762                       # Number of cycles decode is squashing
system.switch_cpus3.decode.branchResolved     37024789                       # Number of times decode resolved a  branch
system.switch_cpus3.decode.branchMispred         2066                       # Number of times decode detected a branch misprediction
system.switch_cpus3.decode.decodedInsts     668425474                       # Number of instructions handled by decode
system.switch_cpus3.decode.squashedInsts         5116                       # Number of squashed instructions handled by decode
system.switch_cpus3.dtb.rdAccesses           59342461                       # TLB accesses on read requests
system.switch_cpus3.dtb.wrAccesses           26468956                       # TLB accesses on write requests
system.switch_cpus3.dtb.rdMisses                37026                       # TLB misses on read requests
system.switch_cpus3.dtb.wrMisses                 1761                       # TLB misses on write requests
system.switch_cpus3.dtb.walker.power_state.pwrStateResidencyTicks::UNDEFINED 15023798015814                       # Cumulative time (in ticks) in various power states
system.switch_cpus3.fetch.icacheStallCycles      2984196                       # Number of cycles fetch is stalled on an Icache miss
system.switch_cpus3.fetch.insts             509561854                       # Number of instructions fetch has processed
system.switch_cpus3.fetch.branches           59482339                       # Number of branches that fetch encountered
system.switch_cpus3.fetch.predictedBranches     41133135                       # Number of branches that fetch has predicted taken
system.switch_cpus3.fetch.cycles            213939826                       # Number of cycles fetch has run and was not squashing or blocked
system.switch_cpus3.fetch.squashCycles        6595622                       # Number of cycles fetch has spent squashing
system.switch_cpus3.fetch.miscStallCycles           72                       # Number of cycles fetch has spent waiting on interrupts,or bad addresses, or out of MSHRs
system.switch_cpus3.fetch.pendingTrapStallCycles          616                       # Number of stall cycles due to pending traps
system.switch_cpus3.fetch.cacheLines         68138965                       # Number of cache lines fetched
system.switch_cpus3.fetch.icacheSquashes          246                       # Number of outstanding Icache misses that were squashed
system.switch_cpus3.fetch.nisnDist::samples    220222521                       # Number of instructions fetched each cycle (Total)
system.switch_cpus3.fetch.nisnDist::mean     3.412201                       # Number of instructions fetched each cycle (Total)
system.switch_cpus3.fetch.nisnDist::stdev     3.356489                       # Number of instructions fetched each cycle (Total)
system.switch_cpus3.fetch.nisnDist::underflows            0      0.00%      0.00% # Number of instructions fetched each cycle (Total)
system.switch_cpus3.fetch.nisnDist::0        83451225     37.89%     37.89% # Number of instructions fetched each cycle (Total)
system.switch_cpus3.fetch.nisnDist::1        12435448      5.65%     43.54% # Number of instructions fetched each cycle (Total)
system.switch_cpus3.fetch.nisnDist::2        14793580      6.72%     50.26% # Number of instructions fetched each cycle (Total)
system.switch_cpus3.fetch.nisnDist::3        11136377      5.06%     55.32% # Number of instructions fetched each cycle (Total)
system.switch_cpus3.fetch.nisnDist::4        11829017      5.37%     60.69% # Number of instructions fetched each cycle (Total)
system.switch_cpus3.fetch.nisnDist::5        14182709      6.44%     67.13% # Number of instructions fetched each cycle (Total)
system.switch_cpus3.fetch.nisnDist::6         8389327      3.81%     70.94% # Number of instructions fetched each cycle (Total)
system.switch_cpus3.fetch.nisnDist::7         4592487      2.09%     73.02% # Number of instructions fetched each cycle (Total)
system.switch_cpus3.fetch.nisnDist::8        59412351     26.98%    100.00% # Number of instructions fetched each cycle (Total)
system.switch_cpus3.fetch.nisnDist::overflows            0      0.00%    100.00% # Number of instructions fetched each cycle (Total)
system.switch_cpus3.fetch.nisnDist::min_value            0                       # Number of instructions fetched each cycle (Total)
system.switch_cpus3.fetch.nisnDist::max_value            8                       # Number of instructions fetched each cycle (Total)
system.switch_cpus3.fetch.nisnDist::total    220222521                       # Number of instructions fetched each cycle (Total)
system.switch_cpus3.fetch.branchRate         0.270036                       # Number of branch fetches per cycle
system.switch_cpus3.fetch.rate               2.313289                       # Number of inst fetches per cycle
system.switch_cpus3.itb.rdAccesses                  0                       # TLB accesses on read requests
system.switch_cpus3.itb.wrAccesses           68139075                       # TLB accesses on write requests
system.switch_cpus3.itb.rdMisses                    0                       # TLB misses on read requests
system.switch_cpus3.itb.wrMisses                  130                       # TLB misses on write requests
system.switch_cpus3.itb.walker.power_state.pwrStateResidencyTicks::UNDEFINED 15023798015814                       # Cumulative time (in ticks) in various power states
system.switch_cpus3.lsq0.forwLoads            7054337                       # Number of loads that had data forwarded from stores
system.switch_cpus3.lsq0.squashedLoads       32478681                       # Number of loads squashed
system.switch_cpus3.lsq0.ignoredResponses         7076                       # Number of memory responses ignored because the instruction is squashed
system.switch_cpus3.lsq0.memOrderViolation        19587                       # Number of memory ordering violations
system.switch_cpus3.lsq0.squashedStores      21382850                       # Number of stores squashed
system.switch_cpus3.lsq0.rescheduledLoads            7                       # Number of loads that were rescheduled
system.switch_cpus3.lsq0.blockedByCache           740                       # Number of times an access to memory failed due to the cache being blocked
system.switch_cpus3.power_state.pwrStateResidencyTicks::OFF  73351897011                       # Cumulative time (in ticks) in various power states
system.switch_cpus3.rename.squashCycles       3295762                       # Number of cycles rename is squashing
system.switch_cpus3.rename.idleCycles        30873345                       # Number of cycles rename is idle
system.switch_cpus3.rename.blockCycles       48138391                       # Number of cycles rename is blocking
system.switch_cpus3.rename.serializeStallCycles            0                       # count of cycles rename stalledfor serializing inst
system.switch_cpus3.rename.runCycles         79864840                       # Number of cycles rename is running
system.switch_cpus3.rename.unblockCycles     58050177                       # Number of cycles rename is unblocking
system.switch_cpus3.rename.renamedInsts     649845483                       # Number of instructions processed by rename
system.switch_cpus3.rename.ROBFullEvents        40374                       # Number of times rename has blocked due to ROB full
system.switch_cpus3.rename.IQFullEvents      40960357                       # Number of times rename has blocked due to IQ full
system.switch_cpus3.rename.LQFullEvents         41587                       # Number of times rename has blocked due to LQ full
system.switch_cpus3.rename.SQFullEvents      11742101                       # Number of times rename has blocked due to SQ full
system.switch_cpus3.rename.renamedOperands    932173632                       # Number of destination operands rename has renamed
system.switch_cpus3.rename.lookups         1667429570                       # Number of register rename lookups that rename has made
system.switch_cpus3.rename.intLookups      1130120063                       # Number of integer rename lookups
system.switch_cpus3.rename.fpLookups          6603510                       # Number of floating rename lookups
system.switch_cpus3.rename.committedMaps    534173468                       # Number of HB maps that are committed
system.switch_cpus3.rename.undoneMaps       398000025                       # Number of HB maps that are undone due to squashing
system.switch_cpus3.rename.serializing              0                       # count of serializing insts renamed
system.switch_cpus3.rename.tempSerializing            0                       # count of temporary serializing insts renamed
system.switch_cpus3.rename.skidInsts        123977214                       # count of insts added to the skid buffer
system.switch_cpus3.rob.reads               781419680                       # The number of ROB reads
system.switch_cpus3.rob.writes             1264935939                       # The number of ROB writes
system.switch_cpus3.thread0.numInsts        249877555                       # Number of Instructions committed
system.switch_cpus3.thread0.numOps          362567728                       # Number of Ops committed
system.switch_cpus3.thread0.numMemRefs              0                       # Number of Memory References
system.voltage_domain.voltage                       1                       # Voltage in Volts

---------- End Simulation Statistics   ----------
