Command line:
./runscript_pride.sh leela RFM2.BR2.4C 4 2017 --rh_defense --rh_mitigation=RFM --rh_rfm_per_trefi=2 --rh_rfm_blast_radius=2 --rh_rfm_maxacts_per_trefi=79
Global frequency set at 1000000000000 ticks per second
RFM details - rfm_act_threshold: 39, blast_radius: 2, delay_per_rfm: 175000 ps. sample_rate: 0.025000
RH Defense config: RFM, Bus Delay: 0, rfms_per_trefi: 2, rfm_act_threshold: 39, blast_radius: 2,rfm_delay_per_act: 45000 ps.
DRAM config: RowsPerBank: 65536, BanksPerRank: 32, RanksPerChannel: 1
warn: Sockets disabled, not accepting gdb connections
warn: CoherentXBar system.cpu0.mmucache.mmubus has no snooping ports attached!
warn: CoherentXBar system.cpu1.mmucache.mmubus has no snooping ports attached!
warn: CoherentXBar system.cpu2.mmucache.mmubus has no snooping ports attached!
warn: CoherentXBar system.cpu3.mmucache.mmubus has no snooping ports attached!
warn: Checkpoints for file descriptors currently do not work.
warn: Checkpoints for file descriptors currently do not work.
warn: Checkpoints for file descriptors currently do not work.
warn: Checkpoints for file descriptors currently do not work.
gem5 Simulator System.  http://gem5.org
gem5 is copyrighted software; use the --copyright option for details.

gem5 version 20.1.0.5
gem5 compiled Jul 12 2024 12:42:38
gem5 started Aug  1 2024 16:47:13
gem5 executing on a07dda8b130c, pid 250183
command line: /home/user/PrIDE/performance/gem5/build/X86/gem5.opt --outdir=/home/user/PrIDE/performance/gem5/stats/pride_multiprogram_16GBmem_250Mn.SPEC2017.C4/RFM2.BR2.4C/leela /home/user/PrIDE/performance/gem5/configs/example/se_rq_spec_config_multicore.py --redirects /lib64=/home/utils/gcc-6.2.0/lib64 --benchmark=leela --benchmark_stdout=/home/user/PrIDE/performance/gem5/stats/pride_multiprogram_16GBmem_250Mn.SPEC2017.C4/RFM2.BR2.4C/leela/leela.out --benchmark_stderr=/home/user/PrIDE/performance/gem5/stats/pride_multiprogram_16GBmem_250Mn.SPEC2017.C4/RFM2.BR2.4C/leela/leela.err --spec-version=2017 --rh_defense --rh_mitigation=RFM --rh_rfm_per_trefi=2 --rh_rfm_blast_radius=2 --rh_rfm_maxacts_per_trefi=79 --num-cpus=4 --mem-size=16GB --mem-type=DDR5_2400_32x4 --mem-ranks=1 --mem-channels=1 --checkpoint-dir=/home/user/PrIDE/performance/gem5/cpts-DDR5/multiprogram_16GBmem_25Bn.SPEC2017.C4/leela-1-ref-x86 --checkpoint-restore=25000000000 --at-instruction --cpu-type DerivO3CPU --caches --l2cache --l1d_size=32kB --l1i_size=32kB --l2_size=256kB --l3_size=4MB --l1d_assoc=8 --l1i_assoc=8 --l2_assoc=16 --l3_assoc=16 --cpu-clock=3GHz --sys-clock=3GHz --maxinsts=250000000 --prog-interval=300Hz

info: Standard input is not a terminal, disabling listeners.
Benchmark- 0   leela
Selected benchmark
--> leela
CMD: ['/opt/spec2017/benchspec/CPU/541.leela_r/run/run_base_refrate_gem5_se-m64.0000/leela_r_base.gem5_se-m64', '/opt/spec2017/benchspec/CPU/541.leela_r/run/run_base_refrate_gem5_se-m64.0000/ref.sgf']
CWD: /opt/spec2017/benchspec/CPU/541.leela_r/run/run_base_refrate_gem5_se-m64.0000/
Process stdout file: /home/user/PrIDE/performance/gem5/stats/pride_multiprogram_16GBmem_250Mn.SPEC2017.C4/RFM2.BR2.4C/leela/leela.out_0
Process stderr file: /home/user/PrIDE/performance/gem5/stats/pride_multiprogram_16GBmem_250Mn.SPEC2017.C4/RFM2.BR2.4C/leela/leela.err_0
Benchmark- 1   leela
Selected benchmark
--> leela
CMD: ['/opt/spec2017/benchspec/CPU/541.leela_r/run/run_base_refrate_gem5_se-m64.0000/leela_r_base.gem5_se-m64', '/opt/spec2017/benchspec/CPU/541.leela_r/run/run_base_refrate_gem5_se-m64.0000/ref.sgf']
CWD: /opt/spec2017/benchspec/CPU/541.leela_r/run/run_base_refrate_gem5_se-m64.0000/
Process stdout file: /home/user/PrIDE/performance/gem5/stats/pride_multiprogram_16GBmem_250Mn.SPEC2017.C4/RFM2.BR2.4C/leela/leela.out_1
Process stderr file: /home/user/PrIDE/performance/gem5/stats/pride_multiprogram_16GBmem_250Mn.SPEC2017.C4/RFM2.BR2.4C/leela/leela.err_1
Benchmark- 2   leela
Selected benchmark
--> leela
CMD: ['/opt/spec2017/benchspec/CPU/541.leela_r/run/run_base_refrate_gem5_se-m64.0000/leela_r_base.gem5_se-m64', '/opt/spec2017/benchspec/CPU/541.leela_r/run/run_base_refrate_gem5_se-m64.0000/ref.sgf']
CWD: /opt/spec2017/benchspec/CPU/541.leela_r/run/run_base_refrate_gem5_se-m64.0000/
Process stdout file: /home/user/PrIDE/performance/gem5/stats/pride_multiprogram_16GBmem_250Mn.SPEC2017.C4/RFM2.BR2.4C/leela/leela.out_2
Process stderr file: /home/user/PrIDE/performance/gem5/stats/pride_multiprogram_16GBmem_250Mn.SPEC2017.C4/RFM2.BR2.4C/leela/leela.err_2
Benchmark- 3   leela
Selected benchmark
--> leela
CMD: ['/opt/spec2017/benchspec/CPU/541.leela_r/run/run_base_refrate_gem5_se-m64.0000/leela_r_base.gem5_se-m64', '/opt/spec2017/benchspec/CPU/541.leela_r/run/run_base_refrate_gem5_se-m64.0000/ref.sgf']
CWD: /opt/spec2017/benchspec/CPU/541.leela_r/run/run_base_refrate_gem5_se-m64.0000/
Process stdout file: /home/user/PrIDE/performance/gem5/stats/pride_multiprogram_16GBmem_250Mn.SPEC2017.C4/RFM2.BR2.4C/leela/leela.out_3
Process stderr file: /home/user/PrIDE/performance/gem5/stats/pride_multiprogram_16GBmem_250Mn.SPEC2017.C4/RFM2.BR2.4C/leela/leela.err_3
Workload-0: 
['/opt/spec2017/benchspec/CPU/541.leela_r/run/run_base_refrate_gem5_se-m64.0000/leela_r_base.gem5_se-m64', '/opt/spec2017/benchspec/CPU/541.leela_r/run/run_base_refrate_gem5_se-m64.0000/ref.sgf']
Workload-1: 
['/opt/spec2017/benchspec/CPU/541.leela_r/run/run_base_refrate_gem5_se-m64.0000/leela_r_base.gem5_se-m64', '/opt/spec2017/benchspec/CPU/541.leela_r/run/run_base_refrate_gem5_se-m64.0000/ref.sgf']
Workload-2: 
['/opt/spec2017/benchspec/CPU/541.leela_r/run/run_base_refrate_gem5_se-m64.0000/leela_r_base.gem5_se-m64', '/opt/spec2017/benchspec/CPU/541.leela_r/run/run_base_refrate_gem5_se-m64.0000/ref.sgf']
Workload-3: 
['/opt/spec2017/benchspec/CPU/541.leela_r/run/run_base_refrate_gem5_se-m64.0000/leela_r_base.gem5_se-m64', '/opt/spec2017/benchspec/CPU/541.leela_r/run/run_base_refrate_gem5_se-m64.0000/ref.sgf']
defense_enable:  True  detector:  MG  mitigation:  RFM  threshold:  800
mg_entries:  1700
rfm_maxacts_per_trefi:  79 rfm_per_trefi:  2 rfm_blast_radius:  2
Switch at curTick count:10000
warn: membus.master is deprecated. `master` is now called `mem_side_ports`
warn: No dot file generated. Please install pydot to generate the dot file and pdf.
info: Entering event queue @ 18573644891205.  Starting simulation...
info: Entering event queue @ 18573644901205.  Starting simulation...
warn: PowerState: Already in the requested power state, request ignored
Switched CPUS @ tick 18573644901205
switching cpus
**** REAL SIMULATION ****
info: Entering event queue @ 18573644901528.  Starting simulation...
warn: MOVNTDQ: Ignoring non-temporal hint, modeling as cacheable!
18576978224538: Event_285: system.switch_cpus3 progress event, total committed:18640092, progress insts committed: 18640092, IPC: 01.86215
18576978224538: Event_284: system.switch_cpus2 progress event, total committed:18640092, progress insts committed: 18640092, IPC: 01.86215
18576978224538: Event_283: system.switch_cpus1 progress event, total committed:18639991, progress insts committed: 18639991, IPC: 01.86214
18576978224538: Event_282: system.switch_cpus0 progress event, total committed:18640085, progress insts committed: 18640085, IPC: 01.86214
18580311557871: Event_282: system.switch_cpus0 progress event, total committed:38354833, progress insts committed: 19714748, IPC: 001.9695
18580311557871: Event_283: system.switch_cpus1 progress event, total committed:38354726, progress insts committed: 19714735, IPC: 001.9695
18580311557871: Event_284: system.switch_cpus2 progress event, total committed:38357053, progress insts committed: 19716961, IPC: 01.96972
18580311557871: Event_285: system.switch_cpus3 progress event, total committed:38357118, progress insts committed: 19717026, IPC: 01.96973
18583644891204: Event_285: system.switch_cpus3 progress event, total committed:58134051, progress insts committed: 19776933, IPC: 01.97572
18583644891204: Event_284: system.switch_cpus2 progress event, total committed:58134009, progress insts committed: 19776956, IPC: 01.97572
18583644891204: Event_283: system.switch_cpus1 progress event, total committed:58134072, progress insts committed: 19779346, IPC: 01.97596
18583644891204: Event_282: system.switch_cpus0 progress event, total committed:58134036, progress insts committed: 19779203, IPC: 01.97594
18586978224537: Event_282: system.switch_cpus0 progress event, total committed:78000566, progress insts committed: 19866530, IPC: 01.98467
18586978224537: Event_283: system.switch_cpus1 progress event, total committed:78000753, progress insts committed: 19866681, IPC: 01.98468
18586978224537: Event_284: system.switch_cpus2 progress event, total committed:78000748, progress insts committed: 19866739, IPC: 01.98469
18586978224537: Event_285: system.switch_cpus3 progress event, total committed:78000777, progress insts committed: 19866726, IPC: 01.98469
18590311557870: Event_285: system.switch_cpus3 progress event, total committed:98024861, progress insts committed: 20024084, IPC: 02.00041
18590311557870: Event_284: system.switch_cpus2 progress event, total committed:98024172, progress insts committed: 20023424, IPC: 02.00034
18590311557870: Event_283: system.switch_cpus1 progress event, total committed:98020289, progress insts committed: 20019536, IPC: 01.99995
18590311557870: Event_282: system.switch_cpus0 progress event, total committed:98020297, progress insts committed: 20019731, IPC: 01.99997
18593644891203: Event_282: system.switch_cpus0 progress event, total committed:115102488, progress insts committed: 17082191, IPC: 01.70651
18593644891203: Event_283: system.switch_cpus1 progress event, total committed:115102870, progress insts committed: 17082581, IPC: 01.70655
18593644891203: Event_284: system.switch_cpus2 progress event, total committed:115117046, progress insts committed: 17092874, IPC: 01.70758
18593644891203: Event_285: system.switch_cpus3 progress event, total committed:115111683, progress insts committed: 17086822, IPC: 01.70697
18596978224536: Event_285: system.switch_cpus3 progress event, total committed:135104021, progress insts committed: 19992338, IPC: 01.99723
18596978224536: Event_284: system.switch_cpus2 progress event, total committed:135101805, progress insts committed: 19984759, IPC: 01.99648
18596978224536: Event_283: system.switch_cpus1 progress event, total committed:135086227, progress insts committed: 19983357, IPC: 01.99634
18596978224536: Event_282: system.switch_cpus0 progress event, total committed:135088100, progress insts committed: 19985612, IPC: 01.99656
18600311557869: Event_282: system.switch_cpus0 progress event, total committed:154930836, progress insts committed: 19842736, IPC: 01.98229
18600311557869: Event_283: system.switch_cpus1 progress event, total committed:154931126, progress insts committed: 19844899, IPC: 01.98251
18600311557869: Event_284: system.switch_cpus2 progress event, total committed:154939728, progress insts committed: 19837923, IPC: 01.98181
18600311557869: Event_285: system.switch_cpus3 progress event, total committed:154949172, progress insts committed: 19845151, IPC: 01.98253
18603644891202: Event_285: system.switch_cpus3 progress event, total committed:174923045, progress insts committed: 19973873, IPC: 01.99539
18603644891202: Event_284: system.switch_cpus2 progress event, total committed:174913236, progress insts committed: 19973508, IPC: 01.99535
18603644891202: Event_283: system.switch_cpus1 progress event, total committed:174906879, progress insts committed: 19975753, IPC: 01.99558
18603644891202: Event_282: system.switch_cpus0 progress event, total committed:174908318, progress insts committed: 19977482, IPC: 01.99575
18606978224535: Event_282: system.switch_cpus0 progress event, total committed:194854315, progress insts committed: 19945997, IPC: 01.99261
18606978224535: Event_283: system.switch_cpus1 progress event, total committed:194852932, progress insts committed: 19946053, IPC: 01.99261
18606978224535: Event_284: system.switch_cpus2 progress event, total committed:194854614, progress insts committed: 19941378, IPC: 01.99214
18606978224535: Event_285: system.switch_cpus3 progress event, total committed:194862326, progress insts committed: 19939281, IPC: 01.99193
18610311557868: Event_285: system.switch_cpus3 progress event, total committed:214740228, progress insts committed: 19877902, IPC: 001.9858
18610311557868: Event_284: system.switch_cpus2 progress event, total committed:214709922, progress insts committed: 19855308, IPC: 01.98355
18610311557868: Event_283: system.switch_cpus1 progress event, total committed:214722477, progress insts committed: 19869545, IPC: 01.98497
18610311557868: Event_282: system.switch_cpus0 progress event, total committed:214719615, progress insts committed: 19865300, IPC: 01.98454
18613644891201: Event_282: system.switch_cpus0 progress event, total committed:234702846, progress insts committed: 19983231, IPC: 01.99632
18613644891201: Event_283: system.switch_cpus1 progress event, total committed:234710473, progress insts committed: 19987996, IPC: 001.9968
18613644891201: Event_284: system.switch_cpus2 progress event, total committed:234698345, progress insts committed: 19988423, IPC: 01.99684
18613644891201: Event_285: system.switch_cpus3 progress event, total committed:234717959, progress insts committed: 19977731, IPC: 01.99578
18616978224534: Event_285: system.switch_cpus3 progress event, total committed:254781207, progress insts committed: 20063248, IPC: 02.00432
18616978224534: Event_284: system.switch_cpus2 progress event, total committed:254772429, progress insts committed: 20074084, IPC: 002.0054
18616978224534: Event_283: system.switch_cpus1 progress event, total committed:254778378, progress insts committed: 20067905, IPC: 02.00478
18616978224534: Event_282: system.switch_cpus0 progress event, total committed:254771690, progress insts committed: 20068844, IPC: 02.00488
18620311557867: Event_282: system.switch_cpus0 progress event, total committed:274703265, progress insts committed: 19931575, IPC: 01.99116
18620311557867: Event_283: system.switch_cpus1 progress event, total committed:274689608, progress insts committed: 19911230, IPC: 01.98913
18620311557867: Event_284: system.switch_cpus2 progress event, total committed:274708512, progress insts committed: 19936083, IPC: 01.99161
18620311557867: Event_285: system.switch_cpus3 progress event, total committed:274693018, progress insts committed: 19911811, IPC: 01.98919
18623644891200: Event_285: system.switch_cpus3 progress event, total committed:294673431, progress insts committed: 19980413, IPC: 01.99604
18623644891200: Event_284: system.switch_cpus2 progress event, total committed:294689731, progress insts committed: 19981219, IPC: 01.99612
18623644891200: Event_283: system.switch_cpus1 progress event, total committed:294678994, progress insts committed: 19989386, IPC: 01.99694
18623644891200: Event_282: system.switch_cpus0 progress event, total committed:294673885, progress insts committed: 19970620, IPC: 01.99506
18626978224533: Event_282: system.switch_cpus0 progress event, total committed:314681076, progress insts committed: 20007191, IPC: 01.99872
18626978224533: Event_283: system.switch_cpus1 progress event, total committed:314678647, progress insts committed: 19999653, IPC: 01.99797
18626978224533: Event_284: system.switch_cpus2 progress event, total committed:314689524, progress insts committed: 19999793, IPC: 01.99798
18626978224533: Event_285: system.switch_cpus3 progress event, total committed:314681289, progress insts committed: 20007858, IPC: 01.99879
18630311557866: Event_285: system.switch_cpus3 progress event, total committed:334573521, progress insts committed: 19892232, IPC: 01.98723
18630311557866: Event_284: system.switch_cpus2 progress event, total committed:334577779, progress insts committed: 19888255, IPC: 01.98684
18630311557866: Event_283: system.switch_cpus1 progress event, total committed:334565190, progress insts committed: 19886543, IPC: 01.98667
18630311557866: Event_282: system.switch_cpus0 progress event, total committed:334569393, progress insts committed: 19888317, IPC: 01.98684
18633644891199: Event_282: system.switch_cpus0 progress event, total committed:354540119, progress insts committed: 19970726, IPC: 01.99508
18633644891199: Event_283: system.switch_cpus1 progress event, total committed:354539679, progress insts committed: 19974489, IPC: 01.99545
18633644891199: Event_284: system.switch_cpus2 progress event, total committed:354539024, progress insts committed: 19961245, IPC: 01.99413
18633644891199: Event_285: system.switch_cpus3 progress event, total committed:354539561, progress insts committed: 19966040, IPC: 01.99461
18636978224532: Event_285: system.switch_cpus3 progress event, total committed:374566976, progress insts committed: 20027415, IPC: 02.00074
18636978224532: Event_284: system.switch_cpus2 progress event, total committed:374563735, progress insts committed: 20024711, IPC: 02.00047
18636978224532: Event_283: system.switch_cpus1 progress event, total committed:374548837, progress insts committed: 20009158, IPC: 01.99891
18636978224532: Event_282: system.switch_cpus0 progress event, total committed:374555892, progress insts committed: 20015773, IPC: 01.99958
18640311557865: Event_282: system.switch_cpus0 progress event, total committed:394391968, progress insts committed: 19836076, IPC: 01.98162
18640311557865: Event_283: system.switch_cpus1 progress event, total committed:394399922, progress insts committed: 19851085, IPC: 01.98312
18640311557865: Event_284: system.switch_cpus2 progress event, total committed:394413095, progress insts committed: 19849360, IPC: 01.98295
18640311557865: Event_285: system.switch_cpus3 progress event, total committed:394415762, progress insts committed: 19848786, IPC: 01.98289
18643644891198: Event_285: system.switch_cpus3 progress event, total committed:414322606, progress insts committed: 19906844, IPC: 01.98869
18643644891198: Event_284: system.switch_cpus2 progress event, total committed:414315560, progress insts committed: 19902465, IPC: 01.98826
18643644891198: Event_283: system.switch_cpus1 progress event, total committed:414313753, progress insts committed: 19913831, IPC: 01.98939
18643644891198: Event_282: system.switch_cpus0 progress event, total committed:414308153, progress insts committed: 19916185, IPC: 01.98963
18646978224531: Event_282: system.switch_cpus0 progress event, total committed:434294360, progress insts committed: 19986207, IPC: 01.99662
18646978224531: Event_283: system.switch_cpus1 progress event, total committed:434294286, progress insts committed: 19980533, IPC: 01.99606
18646978224531: Event_284: system.switch_cpus2 progress event, total committed:434310873, progress insts committed: 19995313, IPC: 01.99753
18646978224531: Event_285: system.switch_cpus3 progress event, total committed:434312573, progress insts committed: 19989967, IPC: 0001.997
18650311557864: Event_285: system.switch_cpus3 progress event, total committed:454293329, progress insts committed: 19980756, IPC: 01.99608
18650311557864: Event_284: system.switch_cpus2 progress event, total committed:454290368, progress insts committed: 19979495, IPC: 01.99595
18650311557864: Event_283: system.switch_cpus1 progress event, total committed:454277108, progress insts committed: 19982822, IPC: 01.99628
18650311557864: Event_282: system.switch_cpus0 progress event, total committed:454273356, progress insts committed: 19978996, IPC: 001.9959
Exiting @ tick 18651236436990 because a thread reached the max instruction count
