
---------- Begin Simulation Statistics ----------
final_tick                               18651236436990                       # Number of ticks from beginning of simulation (restored from checkpoints and never reset)
host_inst_rate                                  99852                       # Simulator instruction rate (inst/s)
host_mem_usage                               17137432                       # Number of bytes of host memory used
host_op_rate                                   183667                       # Simulator op (including micro ops) rate (op/s)
host_seconds                                 10014.61                       # Real time elapsed on the host
host_tick_rate                                7747832                       # Simulator tick rate (ticks/s)
sim_freq                                 1000000000000                       # Frequency of simulated ticks
sim_insts                                   999979129                       # Number of instructions simulated
sim_ops                                    1839356774                       # Number of ops (including micro ops) simulated
sim_seconds                                  0.077592                       # Number of seconds simulated
sim_ticks                                 77591545785                       # Number of ticks simulated
system.cpu0.committedInsts                         13                       # Number of instructions committed
system.cpu0.committedOps                           25                       # Number of ops (including micro ops) committed
system.cpu0.idle_fraction                           0                       # Percentage of idle cycles
system.cpu0.l2bus.snoop_filter.hit_multi_requests          245                       # Number of requests hitting in the snoop filter with multiple (>1) holders of the requested data.
system.cpu0.l2bus.snoop_filter.hit_multi_snoops            4                       # Number of snoops hitting in the snoop filter with multiple (>1) holders of the requested data.
system.cpu0.l2bus.snoop_filter.hit_single_requests       832890                       # Number of requests hitting in the snoop filter with a single holder of the requested data.
system.cpu0.l2bus.snoop_filter.hit_single_snoops         2944                       # Number of snoops hitting in the snoop filter with a single holder of the requested data.
system.cpu0.l2bus.snoop_filter.tot_requests      1665308                       # Total number of requests made to the snoop filter.
system.cpu0.l2bus.snoop_filter.tot_snoops         2948                       # Total number of snoops made to the snoop filter.
system.cpu0.mmucache.mmubus.snoop_filter.hit_multi_requests            0                       # Number of requests hitting in the snoop filter with multiple (>1) holders of the requested data.
system.cpu0.mmucache.mmubus.snoop_filter.hit_multi_snoops            0                       # Number of snoops hitting in the snoop filter with multiple (>1) holders of the requested data.
system.cpu0.mmucache.mmubus.snoop_filter.hit_single_requests            0                       # Number of requests hitting in the snoop filter with a single holder of the requested data.
system.cpu0.mmucache.mmubus.snoop_filter.hit_single_snoops            0                       # Number of snoops hitting in the snoop filter with a single holder of the requested data.
system.cpu0.mmucache.mmubus.snoop_filter.tot_requests            0                       # Total number of requests made to the snoop filter.
system.cpu0.mmucache.mmubus.snoop_filter.tot_snoops            0                       # Total number of snoops made to the snoop filter.
system.cpu0.not_idle_fraction                       1                       # Percentage of non-idle cycles
system.cpu0.numCycles                              31                       # number of cpu cycles simulated
system.cpu0.numWorkItemsCompleted                   0                       # number of work items this cpu completed
system.cpu0.numWorkItemsStarted                     0                       # number of work items this cpu started
system.cpu0.num_busy_cycles                        31                       # Number of busy cycles
system.cpu0.num_cc_register_reads                  22                       # number of times the CC registers were read
system.cpu0.num_cc_register_writes                 12                       # number of times the CC registers were written
system.cpu0.num_conditional_control_insts            0                       # number of instructions that are conditional controls
system.cpu0.num_fp_alu_accesses                     0                       # Number of float alu accesses
system.cpu0.num_fp_insts                            0                       # number of float instructions
system.cpu0.num_fp_register_reads                   0                       # number of times the floating registers were read
system.cpu0.num_fp_register_writes                  0                       # number of times the floating registers were written
system.cpu0.num_func_calls                          0                       # number of times a function call or return occured
system.cpu0.num_idle_cycles                         0                       # Number of idle cycles
system.cpu0.num_int_alu_accesses                   25                       # Number of integer alu accesses
system.cpu0.num_int_insts                          25                       # number of integer instructions
system.cpu0.num_int_register_reads                 51                       # number of times the integer registers were read
system.cpu0.num_int_register_writes                25                       # number of times the integer registers were written
system.cpu0.num_load_insts                          4                       # Number of load instructions
system.cpu0.num_mem_refs                            4                       # number of memory refs
system.cpu0.num_store_insts                         0                       # Number of store instructions
system.cpu0.num_vec_alu_accesses                    0                       # Number of vector alu accesses
system.cpu0.num_vec_insts                           0                       # number of vector instructions
system.cpu0.num_vec_register_reads                  0                       # number of times the vector registers were read
system.cpu0.num_vec_register_writes                 0                       # number of times the vector registers were written
system.cpu0.op_class::No_OpClass                    0      0.00%      0.00% # Class of executed instruction
system.cpu0.op_class::IntAlu                       21     84.00%     84.00% # Class of executed instruction
system.cpu0.op_class::IntMult                       0      0.00%     84.00% # Class of executed instruction
system.cpu0.op_class::IntDiv                        0      0.00%     84.00% # Class of executed instruction
system.cpu0.op_class::FloatAdd                      0      0.00%     84.00% # Class of executed instruction
system.cpu0.op_class::FloatCmp                      0      0.00%     84.00% # Class of executed instruction
system.cpu0.op_class::FloatCvt                      0      0.00%     84.00% # Class of executed instruction
system.cpu0.op_class::FloatMult                     0      0.00%     84.00% # Class of executed instruction
system.cpu0.op_class::FloatMultAcc                  0      0.00%     84.00% # Class of executed instruction
system.cpu0.op_class::FloatDiv                      0      0.00%     84.00% # Class of executed instruction
system.cpu0.op_class::FloatMisc                     0      0.00%     84.00% # Class of executed instruction
system.cpu0.op_class::FloatSqrt                     0      0.00%     84.00% # Class of executed instruction
system.cpu0.op_class::SimdAdd                       0      0.00%     84.00% # Class of executed instruction
system.cpu0.op_class::SimdAddAcc                    0      0.00%     84.00% # Class of executed instruction
system.cpu0.op_class::SimdAlu                       0      0.00%     84.00% # Class of executed instruction
system.cpu0.op_class::SimdCmp                       0      0.00%     84.00% # Class of executed instruction
system.cpu0.op_class::SimdCvt                       0      0.00%     84.00% # Class of executed instruction
system.cpu0.op_class::SimdMisc                      0      0.00%     84.00% # Class of executed instruction
system.cpu0.op_class::SimdMult                      0      0.00%     84.00% # Class of executed instruction
system.cpu0.op_class::SimdMultAcc                   0      0.00%     84.00% # Class of executed instruction
system.cpu0.op_class::SimdShift                     0      0.00%     84.00% # Class of executed instruction
system.cpu0.op_class::SimdShiftAcc                  0      0.00%     84.00% # Class of executed instruction
system.cpu0.op_class::SimdDiv                       0      0.00%     84.00% # Class of executed instruction
system.cpu0.op_class::SimdSqrt                      0      0.00%     84.00% # Class of executed instruction
system.cpu0.op_class::SimdFloatAdd                  0      0.00%     84.00% # Class of executed instruction
system.cpu0.op_class::SimdFloatAlu                  0      0.00%     84.00% # Class of executed instruction
system.cpu0.op_class::SimdFloatCmp                  0      0.00%     84.00% # Class of executed instruction
system.cpu0.op_class::SimdFloatCvt                  0      0.00%     84.00% # Class of executed instruction
system.cpu0.op_class::SimdFloatDiv                  0      0.00%     84.00% # Class of executed instruction
system.cpu0.op_class::SimdFloatMisc                 0      0.00%     84.00% # Class of executed instruction
system.cpu0.op_class::SimdFloatMult                 0      0.00%     84.00% # Class of executed instruction
system.cpu0.op_class::SimdFloatMultAcc              0      0.00%     84.00% # Class of executed instruction
system.cpu0.op_class::SimdFloatSqrt                 0      0.00%     84.00% # Class of executed instruction
system.cpu0.op_class::SimdReduceAdd                 0      0.00%     84.00% # Class of executed instruction
system.cpu0.op_class::SimdReduceAlu                 0      0.00%     84.00% # Class of executed instruction
system.cpu0.op_class::SimdReduceCmp                 0      0.00%     84.00% # Class of executed instruction
system.cpu0.op_class::SimdFloatReduceAdd            0      0.00%     84.00% # Class of executed instruction
system.cpu0.op_class::SimdFloatReduceCmp            0      0.00%     84.00% # Class of executed instruction
system.cpu0.op_class::SimdAes                       0      0.00%     84.00% # Class of executed instruction
system.cpu0.op_class::SimdAesMix                    0      0.00%     84.00% # Class of executed instruction
system.cpu0.op_class::SimdSha1Hash                  0      0.00%     84.00% # Class of executed instruction
system.cpu0.op_class::SimdSha1Hash2                 0      0.00%     84.00% # Class of executed instruction
system.cpu0.op_class::SimdSha256Hash                0      0.00%     84.00% # Class of executed instruction
system.cpu0.op_class::SimdSha256Hash2               0      0.00%     84.00% # Class of executed instruction
system.cpu0.op_class::SimdShaSigma2                 0      0.00%     84.00% # Class of executed instruction
system.cpu0.op_class::SimdShaSigma3                 0      0.00%     84.00% # Class of executed instruction
system.cpu0.op_class::SimdPredAlu                   0      0.00%     84.00% # Class of executed instruction
system.cpu0.op_class::MemRead                       4     16.00%    100.00% # Class of executed instruction
system.cpu0.op_class::MemWrite                      0      0.00%    100.00% # Class of executed instruction
system.cpu0.op_class::FloatMemRead                  0      0.00%    100.00% # Class of executed instruction
system.cpu0.op_class::FloatMemWrite                 0      0.00%    100.00% # Class of executed instruction
system.cpu0.op_class::IprAccess                     0      0.00%    100.00% # Class of executed instruction
system.cpu0.op_class::InstPrefetch                  0      0.00%    100.00% # Class of executed instruction
system.cpu0.op_class::total                        25                       # Class of executed instruction
system.cpu0.workload.numSyscalls                    0                       # Number of system calls
system.cpu1.committedInsts                         13                       # Number of instructions committed
system.cpu1.committedOps                           25                       # Number of ops (including micro ops) committed
system.cpu1.idle_fraction                           0                       # Percentage of idle cycles
system.cpu1.l2bus.snoop_filter.hit_multi_requests          281                       # Number of requests hitting in the snoop filter with multiple (>1) holders of the requested data.
system.cpu1.l2bus.snoop_filter.hit_multi_snoops            0                       # Number of snoops hitting in the snoop filter with multiple (>1) holders of the requested data.
system.cpu1.l2bus.snoop_filter.hit_single_requests       832655                       # Number of requests hitting in the snoop filter with a single holder of the requested data.
system.cpu1.l2bus.snoop_filter.hit_single_snoops         2495                       # Number of snoops hitting in the snoop filter with a single holder of the requested data.
system.cpu1.l2bus.snoop_filter.tot_requests      1664821                       # Total number of requests made to the snoop filter.
system.cpu1.l2bus.snoop_filter.tot_snoops         2495                       # Total number of snoops made to the snoop filter.
system.cpu1.mmucache.mmubus.snoop_filter.hit_multi_requests            0                       # Number of requests hitting in the snoop filter with multiple (>1) holders of the requested data.
system.cpu1.mmucache.mmubus.snoop_filter.hit_multi_snoops            0                       # Number of snoops hitting in the snoop filter with multiple (>1) holders of the requested data.
system.cpu1.mmucache.mmubus.snoop_filter.hit_single_requests            0                       # Number of requests hitting in the snoop filter with a single holder of the requested data.
system.cpu1.mmucache.mmubus.snoop_filter.hit_single_snoops            0                       # Number of snoops hitting in the snoop filter with a single holder of the requested data.
system.cpu1.mmucache.mmubus.snoop_filter.tot_requests            0                       # Total number of requests made to the snoop filter.
system.cpu1.mmucache.mmubus.snoop_filter.tot_snoops            0                       # Total number of snoops made to the snoop filter.
system.cpu1.not_idle_fraction                       1                       # Percentage of non-idle cycles
system.cpu1.numCycles                              31                       # number of cpu cycles simulated
system.cpu1.numWorkItemsCompleted                   0                       # number of work items this cpu completed
system.cpu1.numWorkItemsStarted                     0                       # number of work items this cpu started
system.cpu1.num_busy_cycles                        31                       # Number of busy cycles
system.cpu1.num_cc_register_reads                  22                       # number of times the CC registers were read
system.cpu1.num_cc_register_writes                 12                       # number of times the CC registers were written
system.cpu1.num_conditional_control_insts            0                       # number of instructions that are conditional controls
system.cpu1.num_fp_alu_accesses                     0                       # Number of float alu accesses
system.cpu1.num_fp_insts                            0                       # number of float instructions
system.cpu1.num_fp_register_reads                   0                       # number of times the floating registers were read
system.cpu1.num_fp_register_writes                  0                       # number of times the floating registers were written
system.cpu1.num_func_calls                          0                       # number of times a function call or return occured
system.cpu1.num_idle_cycles                         0                       # Number of idle cycles
system.cpu1.num_int_alu_accesses                   25                       # Number of integer alu accesses
system.cpu1.num_int_insts                          25                       # number of integer instructions
system.cpu1.num_int_register_reads                 51                       # number of times the integer registers were read
system.cpu1.num_int_register_writes                25                       # number of times the integer registers were written
system.cpu1.num_load_insts                          4                       # Number of load instructions
system.cpu1.num_mem_refs                            4                       # number of memory refs
system.cpu1.num_store_insts                         0                       # Number of store instructions
system.cpu1.num_vec_alu_accesses                    0                       # Number of vector alu accesses
system.cpu1.num_vec_insts                           0                       # number of vector instructions
system.cpu1.num_vec_register_reads                  0                       # number of times the vector registers were read
system.cpu1.num_vec_register_writes                 0                       # number of times the vector registers were written
system.cpu1.op_class::No_OpClass                    0      0.00%      0.00% # Class of executed instruction
system.cpu1.op_class::IntAlu                       21     84.00%     84.00% # Class of executed instruction
system.cpu1.op_class::IntMult                       0      0.00%     84.00% # Class of executed instruction
system.cpu1.op_class::IntDiv                        0      0.00%     84.00% # Class of executed instruction
system.cpu1.op_class::FloatAdd                      0      0.00%     84.00% # Class of executed instruction
system.cpu1.op_class::FloatCmp                      0      0.00%     84.00% # Class of executed instruction
system.cpu1.op_class::FloatCvt                      0      0.00%     84.00% # Class of executed instruction
system.cpu1.op_class::FloatMult                     0      0.00%     84.00% # Class of executed instruction
system.cpu1.op_class::FloatMultAcc                  0      0.00%     84.00% # Class of executed instruction
system.cpu1.op_class::FloatDiv                      0      0.00%     84.00% # Class of executed instruction
system.cpu1.op_class::FloatMisc                     0      0.00%     84.00% # Class of executed instruction
system.cpu1.op_class::FloatSqrt                     0      0.00%     84.00% # Class of executed instruction
system.cpu1.op_class::SimdAdd                       0      0.00%     84.00% # Class of executed instruction
system.cpu1.op_class::SimdAddAcc                    0      0.00%     84.00% # Class of executed instruction
system.cpu1.op_class::SimdAlu                       0      0.00%     84.00% # Class of executed instruction
system.cpu1.op_class::SimdCmp                       0      0.00%     84.00% # Class of executed instruction
system.cpu1.op_class::SimdCvt                       0      0.00%     84.00% # Class of executed instruction
system.cpu1.op_class::SimdMisc                      0      0.00%     84.00% # Class of executed instruction
system.cpu1.op_class::SimdMult                      0      0.00%     84.00% # Class of executed instruction
system.cpu1.op_class::SimdMultAcc                   0      0.00%     84.00% # Class of executed instruction
system.cpu1.op_class::SimdShift                     0      0.00%     84.00% # Class of executed instruction
system.cpu1.op_class::SimdShiftAcc                  0      0.00%     84.00% # Class of executed instruction
system.cpu1.op_class::SimdDiv                       0      0.00%     84.00% # Class of executed instruction
system.cpu1.op_class::SimdSqrt                      0      0.00%     84.00% # Class of executed instruction
system.cpu1.op_class::SimdFloatAdd                  0      0.00%     84.00% # Class of executed instruction
system.cpu1.op_class::SimdFloatAlu                  0      0.00%     84.00% # Class of executed instruction
system.cpu1.op_class::SimdFloatCmp                  0      0.00%     84.00% # Class of executed instruction
system.cpu1.op_class::SimdFloatCvt                  0      0.00%     84.00% # Class of executed instruction
system.cpu1.op_class::SimdFloatDiv                  0      0.00%     84.00% # Class of executed instruction
system.cpu1.op_class::SimdFloatMisc                 0      0.00%     84.00% # Class of executed instruction
system.cpu1.op_class::SimdFloatMult                 0      0.00%     84.00% # Class of executed instruction
system.cpu1.op_class::SimdFloatMultAcc              0      0.00%     84.00% # Class of executed instruction
system.cpu1.op_class::SimdFloatSqrt                 0      0.00%     84.00% # Class of executed instruction
system.cpu1.op_class::SimdReduceAdd                 0      0.00%     84.00% # Class of executed instruction
system.cpu1.op_class::SimdReduceAlu                 0      0.00%     84.00% # Class of executed instruction
system.cpu1.op_class::SimdReduceCmp                 0      0.00%     84.00% # Class of executed instruction
system.cpu1.op_class::SimdFloatReduceAdd            0      0.00%     84.00% # Class of executed instruction
system.cpu1.op_class::SimdFloatReduceCmp            0      0.00%     84.00% # Class of executed instruction
system.cpu1.op_class::SimdAes                       0      0.00%     84.00% # Class of executed instruction
system.cpu1.op_class::SimdAesMix                    0      0.00%     84.00% # Class of executed instruction
system.cpu1.op_class::SimdSha1Hash                  0      0.00%     84.00% # Class of executed instruction
system.cpu1.op_class::SimdSha1Hash2                 0      0.00%     84.00% # Class of executed instruction
system.cpu1.op_class::SimdSha256Hash                0      0.00%     84.00% # Class of executed instruction
system.cpu1.op_class::SimdSha256Hash2               0      0.00%     84.00% # Class of executed instruction
system.cpu1.op_class::SimdShaSigma2                 0      0.00%     84.00% # Class of executed instruction
system.cpu1.op_class::SimdShaSigma3                 0      0.00%     84.00% # Class of executed instruction
system.cpu1.op_class::SimdPredAlu                   0      0.00%     84.00% # Class of executed instruction
system.cpu1.op_class::MemRead                       4     16.00%    100.00% # Class of executed instruction
system.cpu1.op_class::MemWrite                      0      0.00%    100.00% # Class of executed instruction
system.cpu1.op_class::FloatMemRead                  0      0.00%    100.00% # Class of executed instruction
system.cpu1.op_class::FloatMemWrite                 0      0.00%    100.00% # Class of executed instruction
system.cpu1.op_class::IprAccess                     0      0.00%    100.00% # Class of executed instruction
system.cpu1.op_class::InstPrefetch                  0      0.00%    100.00% # Class of executed instruction
system.cpu1.op_class::total                        25                       # Class of executed instruction
system.cpu1.workload.numSyscalls                    0                       # Number of system calls
system.cpu2.committedInsts                         13                       # Number of instructions committed
system.cpu2.committedOps                           25                       # Number of ops (including micro ops) committed
system.cpu2.idle_fraction                           0                       # Percentage of idle cycles
system.cpu2.l2bus.snoop_filter.hit_multi_requests          260                       # Number of requests hitting in the snoop filter with multiple (>1) holders of the requested data.
system.cpu2.l2bus.snoop_filter.hit_multi_snoops            2                       # Number of snoops hitting in the snoop filter with multiple (>1) holders of the requested data.
system.cpu2.l2bus.snoop_filter.hit_single_requests       833075                       # Number of requests hitting in the snoop filter with a single holder of the requested data.
system.cpu2.l2bus.snoop_filter.hit_single_snoops         2663                       # Number of snoops hitting in the snoop filter with a single holder of the requested data.
system.cpu2.l2bus.snoop_filter.tot_requests      1665645                       # Total number of requests made to the snoop filter.
system.cpu2.l2bus.snoop_filter.tot_snoops         2665                       # Total number of snoops made to the snoop filter.
system.cpu2.mmucache.mmubus.snoop_filter.hit_multi_requests            0                       # Number of requests hitting in the snoop filter with multiple (>1) holders of the requested data.
system.cpu2.mmucache.mmubus.snoop_filter.hit_multi_snoops            0                       # Number of snoops hitting in the snoop filter with multiple (>1) holders of the requested data.
system.cpu2.mmucache.mmubus.snoop_filter.hit_single_requests            0                       # Number of requests hitting in the snoop filter with a single holder of the requested data.
system.cpu2.mmucache.mmubus.snoop_filter.hit_single_snoops            0                       # Number of snoops hitting in the snoop filter with a single holder of the requested data.
system.cpu2.mmucache.mmubus.snoop_filter.tot_requests            0                       # Total number of requests made to the snoop filter.
system.cpu2.mmucache.mmubus.snoop_filter.tot_snoops            0                       # Total number of snoops made to the snoop filter.
system.cpu2.not_idle_fraction                       1                       # Percentage of non-idle cycles
system.cpu2.numCycles                              31                       # number of cpu cycles simulated
system.cpu2.numWorkItemsCompleted                   0                       # number of work items this cpu completed
system.cpu2.numWorkItemsStarted                     0                       # number of work items this cpu started
system.cpu2.num_busy_cycles                        31                       # Number of busy cycles
system.cpu2.num_cc_register_reads                  22                       # number of times the CC registers were read
system.cpu2.num_cc_register_writes                 12                       # number of times the CC registers were written
system.cpu2.num_conditional_control_insts            0                       # number of instructions that are conditional controls
system.cpu2.num_fp_alu_accesses                     0                       # Number of float alu accesses
system.cpu2.num_fp_insts                            0                       # number of float instructions
system.cpu2.num_fp_register_reads                   0                       # number of times the floating registers were read
system.cpu2.num_fp_register_writes                  0                       # number of times the floating registers were written
system.cpu2.num_func_calls                          0                       # number of times a function call or return occured
system.cpu2.num_idle_cycles                         0                       # Number of idle cycles
system.cpu2.num_int_alu_accesses                   25                       # Number of integer alu accesses
system.cpu2.num_int_insts                          25                       # number of integer instructions
system.cpu2.num_int_register_reads                 51                       # number of times the integer registers were read
system.cpu2.num_int_register_writes                25                       # number of times the integer registers were written
system.cpu2.num_load_insts                          4                       # Number of load instructions
system.cpu2.num_mem_refs                            4                       # number of memory refs
system.cpu2.num_store_insts                         0                       # Number of store instructions
system.cpu2.num_vec_alu_accesses                    0                       # Number of vector alu accesses
system.cpu2.num_vec_insts                           0                       # number of vector instructions
system.cpu2.num_vec_register_reads                  0                       # number of times the vector registers were read
system.cpu2.num_vec_register_writes                 0                       # number of times the vector registers were written
system.cpu2.op_class::No_OpClass                    0      0.00%      0.00% # Class of executed instruction
system.cpu2.op_class::IntAlu                       21     84.00%     84.00% # Class of executed instruction
system.cpu2.op_class::IntMult                       0      0.00%     84.00% # Class of executed instruction
system.cpu2.op_class::IntDiv                        0      0.00%     84.00% # Class of executed instruction
system.cpu2.op_class::FloatAdd                      0      0.00%     84.00% # Class of executed instruction
system.cpu2.op_class::FloatCmp                      0      0.00%     84.00% # Class of executed instruction
system.cpu2.op_class::FloatCvt                      0      0.00%     84.00% # Class of executed instruction
system.cpu2.op_class::FloatMult                     0      0.00%     84.00% # Class of executed instruction
system.cpu2.op_class::FloatMultAcc                  0      0.00%     84.00% # Class of executed instruction
system.cpu2.op_class::FloatDiv                      0      0.00%     84.00% # Class of executed instruction
system.cpu2.op_class::FloatMisc                     0      0.00%     84.00% # Class of executed instruction
system.cpu2.op_class::FloatSqrt                     0      0.00%     84.00% # Class of executed instruction
system.cpu2.op_class::SimdAdd                       0      0.00%     84.00% # Class of executed instruction
system.cpu2.op_class::SimdAddAcc                    0      0.00%     84.00% # Class of executed instruction
system.cpu2.op_class::SimdAlu                       0      0.00%     84.00% # Class of executed instruction
system.cpu2.op_class::SimdCmp                       0      0.00%     84.00% # Class of executed instruction
system.cpu2.op_class::SimdCvt                       0      0.00%     84.00% # Class of executed instruction
system.cpu2.op_class::SimdMisc                      0      0.00%     84.00% # Class of executed instruction
system.cpu2.op_class::SimdMult                      0      0.00%     84.00% # Class of executed instruction
system.cpu2.op_class::SimdMultAcc                   0      0.00%     84.00% # Class of executed instruction
system.cpu2.op_class::SimdShift                     0      0.00%     84.00% # Class of executed instruction
system.cpu2.op_class::SimdShiftAcc                  0      0.00%     84.00% # Class of executed instruction
system.cpu2.op_class::SimdDiv                       0      0.00%     84.00% # Class of executed instruction
system.cpu2.op_class::SimdSqrt                      0      0.00%     84.00% # Class of executed instruction
system.cpu2.op_class::SimdFloatAdd                  0      0.00%     84.00% # Class of executed instruction
system.cpu2.op_class::SimdFloatAlu                  0      0.00%     84.00% # Class of executed instruction
system.cpu2.op_class::SimdFloatCmp                  0      0.00%     84.00% # Class of executed instruction
system.cpu2.op_class::SimdFloatCvt                  0      0.00%     84.00% # Class of executed instruction
system.cpu2.op_class::SimdFloatDiv                  0      0.00%     84.00% # Class of executed instruction
system.cpu2.op_class::SimdFloatMisc                 0      0.00%     84.00% # Class of executed instruction
system.cpu2.op_class::SimdFloatMult                 0      0.00%     84.00% # Class of executed instruction
system.cpu2.op_class::SimdFloatMultAcc              0      0.00%     84.00% # Class of executed instruction
system.cpu2.op_class::SimdFloatSqrt                 0      0.00%     84.00% # Class of executed instruction
system.cpu2.op_class::SimdReduceAdd                 0      0.00%     84.00% # Class of executed instruction
system.cpu2.op_class::SimdReduceAlu                 0      0.00%     84.00% # Class of executed instruction
system.cpu2.op_class::SimdReduceCmp                 0      0.00%     84.00% # Class of executed instruction
system.cpu2.op_class::SimdFloatReduceAdd            0      0.00%     84.00% # Class of executed instruction
system.cpu2.op_class::SimdFloatReduceCmp            0      0.00%     84.00% # Class of executed instruction
system.cpu2.op_class::SimdAes                       0      0.00%     84.00% # Class of executed instruction
system.cpu2.op_class::SimdAesMix                    0      0.00%     84.00% # Class of executed instruction
system.cpu2.op_class::SimdSha1Hash                  0      0.00%     84.00% # Class of executed instruction
system.cpu2.op_class::SimdSha1Hash2                 0      0.00%     84.00% # Class of executed instruction
system.cpu2.op_class::SimdSha256Hash                0      0.00%     84.00% # Class of executed instruction
system.cpu2.op_class::SimdSha256Hash2               0      0.00%     84.00% # Class of executed instruction
system.cpu2.op_class::SimdShaSigma2                 0      0.00%     84.00% # Class of executed instruction
system.cpu2.op_class::SimdShaSigma3                 0      0.00%     84.00% # Class of executed instruction
system.cpu2.op_class::SimdPredAlu                   0      0.00%     84.00% # Class of executed instruction
system.cpu2.op_class::MemRead                       4     16.00%    100.00% # Class of executed instruction
system.cpu2.op_class::MemWrite                      0      0.00%    100.00% # Class of executed instruction
system.cpu2.op_class::FloatMemRead                  0      0.00%    100.00% # Class of executed instruction
system.cpu2.op_class::FloatMemWrite                 0      0.00%    100.00% # Class of executed instruction
system.cpu2.op_class::IprAccess                     0      0.00%    100.00% # Class of executed instruction
system.cpu2.op_class::InstPrefetch                  0      0.00%    100.00% # Class of executed instruction
system.cpu2.op_class::total                        25                       # Class of executed instruction
system.cpu2.workload.numSyscalls                    0                       # Number of system calls
system.cpu3.committedInsts                         13                       # Number of instructions committed
system.cpu3.committedOps                           25                       # Number of ops (including micro ops) committed
system.cpu3.idle_fraction                           0                       # Percentage of idle cycles
system.cpu3.l2bus.snoop_filter.hit_multi_requests          282                       # Number of requests hitting in the snoop filter with multiple (>1) holders of the requested data.
system.cpu3.l2bus.snoop_filter.hit_multi_snoops            0                       # Number of snoops hitting in the snoop filter with multiple (>1) holders of the requested data.
system.cpu3.l2bus.snoop_filter.hit_single_requests       832931                       # Number of requests hitting in the snoop filter with a single holder of the requested data.
system.cpu3.l2bus.snoop_filter.hit_single_snoops         2655                       # Number of snoops hitting in the snoop filter with a single holder of the requested data.
system.cpu3.l2bus.snoop_filter.tot_requests      1665384                       # Total number of requests made to the snoop filter.
system.cpu3.l2bus.snoop_filter.tot_snoops         2655                       # Total number of snoops made to the snoop filter.
system.cpu3.mmucache.mmubus.snoop_filter.hit_multi_requests            0                       # Number of requests hitting in the snoop filter with multiple (>1) holders of the requested data.
system.cpu3.mmucache.mmubus.snoop_filter.hit_multi_snoops            0                       # Number of snoops hitting in the snoop filter with multiple (>1) holders of the requested data.
system.cpu3.mmucache.mmubus.snoop_filter.hit_single_requests            0                       # Number of requests hitting in the snoop filter with a single holder of the requested data.
system.cpu3.mmucache.mmubus.snoop_filter.hit_single_snoops            0                       # Number of snoops hitting in the snoop filter with a single holder of the requested data.
system.cpu3.mmucache.mmubus.snoop_filter.tot_requests            0                       # Total number of requests made to the snoop filter.
system.cpu3.mmucache.mmubus.snoop_filter.tot_snoops            0                       # Total number of snoops made to the snoop filter.
system.cpu3.not_idle_fraction                       1                       # Percentage of non-idle cycles
system.cpu3.numCycles                              31                       # number of cpu cycles simulated
system.cpu3.numWorkItemsCompleted                   0                       # number of work items this cpu completed
system.cpu3.numWorkItemsStarted                     0                       # number of work items this cpu started
system.cpu3.num_busy_cycles                        31                       # Number of busy cycles
system.cpu3.num_cc_register_reads                  22                       # number of times the CC registers were read
system.cpu3.num_cc_register_writes                 12                       # number of times the CC registers were written
system.cpu3.num_conditional_control_insts            0                       # number of instructions that are conditional controls
system.cpu3.num_fp_alu_accesses                     0                       # Number of float alu accesses
system.cpu3.num_fp_insts                            0                       # number of float instructions
system.cpu3.num_fp_register_reads                   0                       # number of times the floating registers were read
system.cpu3.num_fp_register_writes                  0                       # number of times the floating registers were written
system.cpu3.num_func_calls                          0                       # number of times a function call or return occured
system.cpu3.num_idle_cycles                         0                       # Number of idle cycles
system.cpu3.num_int_alu_accesses                   25                       # Number of integer alu accesses
system.cpu3.num_int_insts                          25                       # number of integer instructions
system.cpu3.num_int_register_reads                 51                       # number of times the integer registers were read
system.cpu3.num_int_register_writes                25                       # number of times the integer registers were written
system.cpu3.num_load_insts                          4                       # Number of load instructions
system.cpu3.num_mem_refs                            4                       # number of memory refs
system.cpu3.num_store_insts                         0                       # Number of store instructions
system.cpu3.num_vec_alu_accesses                    0                       # Number of vector alu accesses
system.cpu3.num_vec_insts                           0                       # number of vector instructions
system.cpu3.num_vec_register_reads                  0                       # number of times the vector registers were read
system.cpu3.num_vec_register_writes                 0                       # number of times the vector registers were written
system.cpu3.op_class::No_OpClass                    0      0.00%      0.00% # Class of executed instruction
system.cpu3.op_class::IntAlu                       21     84.00%     84.00% # Class of executed instruction
system.cpu3.op_class::IntMult                       0      0.00%     84.00% # Class of executed instruction
system.cpu3.op_class::IntDiv                        0      0.00%     84.00% # Class of executed instruction
system.cpu3.op_class::FloatAdd                      0      0.00%     84.00% # Class of executed instruction
system.cpu3.op_class::FloatCmp                      0      0.00%     84.00% # Class of executed instruction
system.cpu3.op_class::FloatCvt                      0      0.00%     84.00% # Class of executed instruction
system.cpu3.op_class::FloatMult                     0      0.00%     84.00% # Class of executed instruction
system.cpu3.op_class::FloatMultAcc                  0      0.00%     84.00% # Class of executed instruction
system.cpu3.op_class::FloatDiv                      0      0.00%     84.00% # Class of executed instruction
system.cpu3.op_class::FloatMisc                     0      0.00%     84.00% # Class of executed instruction
system.cpu3.op_class::FloatSqrt                     0      0.00%     84.00% # Class of executed instruction
system.cpu3.op_class::SimdAdd                       0      0.00%     84.00% # Class of executed instruction
system.cpu3.op_class::SimdAddAcc                    0      0.00%     84.00% # Class of executed instruction
system.cpu3.op_class::SimdAlu                       0      0.00%     84.00% # Class of executed instruction
system.cpu3.op_class::SimdCmp                       0      0.00%     84.00% # Class of executed instruction
system.cpu3.op_class::SimdCvt                       0      0.00%     84.00% # Class of executed instruction
system.cpu3.op_class::SimdMisc                      0      0.00%     84.00% # Class of executed instruction
system.cpu3.op_class::SimdMult                      0      0.00%     84.00% # Class of executed instruction
system.cpu3.op_class::SimdMultAcc                   0      0.00%     84.00% # Class of executed instruction
system.cpu3.op_class::SimdShift                     0      0.00%     84.00% # Class of executed instruction
system.cpu3.op_class::SimdShiftAcc                  0      0.00%     84.00% # Class of executed instruction
system.cpu3.op_class::SimdDiv                       0      0.00%     84.00% # Class of executed instruction
system.cpu3.op_class::SimdSqrt                      0      0.00%     84.00% # Class of executed instruction
system.cpu3.op_class::SimdFloatAdd                  0      0.00%     84.00% # Class of executed instruction
system.cpu3.op_class::SimdFloatAlu                  0      0.00%     84.00% # Class of executed instruction
system.cpu3.op_class::SimdFloatCmp                  0      0.00%     84.00% # Class of executed instruction
system.cpu3.op_class::SimdFloatCvt                  0      0.00%     84.00% # Class of executed instruction
system.cpu3.op_class::SimdFloatDiv                  0      0.00%     84.00% # Class of executed instruction
system.cpu3.op_class::SimdFloatMisc                 0      0.00%     84.00% # Class of executed instruction
system.cpu3.op_class::SimdFloatMult                 0      0.00%     84.00% # Class of executed instruction
system.cpu3.op_class::SimdFloatMultAcc              0      0.00%     84.00% # Class of executed instruction
system.cpu3.op_class::SimdFloatSqrt                 0      0.00%     84.00% # Class of executed instruction
system.cpu3.op_class::SimdReduceAdd                 0      0.00%     84.00% # Class of executed instruction
system.cpu3.op_class::SimdReduceAlu                 0      0.00%     84.00% # Class of executed instruction
system.cpu3.op_class::SimdReduceCmp                 0      0.00%     84.00% # Class of executed instruction
system.cpu3.op_class::SimdFloatReduceAdd            0      0.00%     84.00% # Class of executed instruction
system.cpu3.op_class::SimdFloatReduceCmp            0      0.00%     84.00% # Class of executed instruction
system.cpu3.op_class::SimdAes                       0      0.00%     84.00% # Class of executed instruction
system.cpu3.op_class::SimdAesMix                    0      0.00%     84.00% # Class of executed instruction
system.cpu3.op_class::SimdSha1Hash                  0      0.00%     84.00% # Class of executed instruction
system.cpu3.op_class::SimdSha1Hash2                 0      0.00%     84.00% # Class of executed instruction
system.cpu3.op_class::SimdSha256Hash                0      0.00%     84.00% # Class of executed instruction
system.cpu3.op_class::SimdSha256Hash2               0      0.00%     84.00% # Class of executed instruction
system.cpu3.op_class::SimdShaSigma2                 0      0.00%     84.00% # Class of executed instruction
system.cpu3.op_class::SimdShaSigma3                 0      0.00%     84.00% # Class of executed instruction
system.cpu3.op_class::SimdPredAlu                   0      0.00%     84.00% # Class of executed instruction
system.cpu3.op_class::MemRead                       4     16.00%    100.00% # Class of executed instruction
system.cpu3.op_class::MemWrite                      0      0.00%    100.00% # Class of executed instruction
system.cpu3.op_class::FloatMemRead                  0      0.00%    100.00% # Class of executed instruction
system.cpu3.op_class::FloatMemWrite                 0      0.00%    100.00% # Class of executed instruction
system.cpu3.op_class::IprAccess                     0      0.00%    100.00% # Class of executed instruction
system.cpu3.op_class::InstPrefetch                  0      0.00%    100.00% # Class of executed instruction
system.cpu3.op_class::total                        25                       # Class of executed instruction
system.cpu3.workload.numSyscalls                    0                       # Number of system calls
system.l3bus.snoop_filter.hit_multi_requests            0                       # Number of requests hitting in the snoop filter with multiple (>1) holders of the requested data.
system.l3bus.snoop_filter.hit_multi_snoops            0                       # Number of snoops hitting in the snoop filter with multiple (>1) holders of the requested data.
system.l3bus.snoop_filter.hit_single_requests       211046                       # Number of requests hitting in the snoop filter with a single holder of the requested data.
system.l3bus.snoop_filter.hit_single_snoops            0                       # Number of snoops hitting in the snoop filter with a single holder of the requested data.
system.l3bus.snoop_filter.tot_requests         433411                       # Total number of requests made to the snoop filter.
system.l3bus.snoop_filter.tot_snoops                0                       # Total number of snoops made to the snoop filter.
system.membus.snoop_filter.hit_multi_requests            0                       # Number of requests hitting in the snoop filter with multiple (>1) holders of the requested data.
system.membus.snoop_filter.hit_multi_snoops            0                       # Number of snoops hitting in the snoop filter with multiple (>1) holders of the requested data.
system.membus.snoop_filter.hit_single_requests         4032                       # Number of requests hitting in the snoop filter with a single holder of the requested data.
system.membus.snoop_filter.hit_single_snoops            0                       # Number of snoops hitting in the snoop filter with a single holder of the requested data.
system.membus.snoop_filter.tot_requests         66380                       # Total number of requests made to the snoop filter.
system.membus.snoop_filter.tot_snoops               0                       # Total number of snoops made to the snoop filter.
system.switch_cpus0.cc_regfile_reads        318648287                       # number of cc regfile reads
system.switch_cpus0.cc_regfile_writes       224802872                       # number of cc regfile writes
system.switch_cpus0.committedInsts          249991468                       # Number of Instructions Simulated
system.switch_cpus0.committedOps            459833574                       # Number of Ops (including micro ops) Simulated
system.switch_cpus0.cpi                      0.932062                       # CPI: Cycles Per Instruction
system.switch_cpus0.cpi_total                0.932062                       # CPI: Total CPI of All Threads
system.switch_cpus0.fp_regfile_reads          1975593                       # number of floating regfile reads
system.switch_cpus0.fp_regfile_writes         1431609                       # number of floating regfile writes
system.switch_cpus0.idleCycles                 193003                       # Total number of cycles that the CPU has spent unscheduled due to idling
system.switch_cpus0.iew.branchMispredicts      5861793                       # Number of branch mispredicts detected at execute
system.switch_cpus0.iew.exec_branches        60468590                       # Number of branches executed
system.switch_cpus0.iew.exec_nop                    0                       # number of nop insts executed
system.switch_cpus0.iew.exec_rate            2.796396                       # Inst execution rate
system.switch_cpus0.iew.exec_refs           133025858                       # number of memory reference insts executed
system.switch_cpus0.iew.exec_stores          33045683                       # Number of stores executed
system.switch_cpus0.iew.exec_swp                    0                       # number of swp insts executed
system.switch_cpus0.iew.iewBlockCycles       40229265                       # Number of cycles IEW is blocking
system.switch_cpus0.iew.iewDispLoadInsts    123918093                       # Number of dispatched load instructions
system.switch_cpus0.iew.iewDispNonSpecInsts          107                       # Number of dispatched non-speculative instructions
system.switch_cpus0.iew.iewDispSquashedInsts       160057                       # Number of squashed instructions skipped by dispatch
system.switch_cpus0.iew.iewDispStoreInsts     41202544                       # Number of dispatched store instructions
system.switch_cpus0.iew.iewDispatchedInsts    793524671                       # Number of instructions dispatched to IQ
system.switch_cpus0.iew.iewExecLoadInsts     99980175                       # Number of load instructions executed
system.switch_cpus0.iew.iewExecSquashedInsts     11233436                       # Number of squashed instructions skipped in execute
system.switch_cpus0.iew.iewExecutedInsts    651581640                       # Number of executed instructions
system.switch_cpus0.iew.iewIQFullEvents         12968                       # Number of times the IQ has become full, causing a stall
system.switch_cpus0.iew.iewIdleCycles               0                       # Number of cycles IEW is idle
system.switch_cpus0.iew.iewLSQFullEvents       169109                       # Number of times the LSQ has become full, causing a stall
system.switch_cpus0.iew.iewSquashCycles       5214166                       # Number of cycles IEW is squashing
system.switch_cpus0.iew.iewUnblockCycles       181226                       # Number of cycles IEW is unblocking
system.switch_cpus0.iew.memOrderViolationEvents        40610                       # Number of memory order violations
system.switch_cpus0.iew.predictedNotTakenIncorrect      3220476                       # Number of branches that were predicted not taken incorrectly
system.switch_cpus0.iew.predictedTakenIncorrect      2641317                       # Number of branches that were predicted taken incorrectly
system.switch_cpus0.iew.wb_consumers        877922329                       # num instructions consuming a value
system.switch_cpus0.iew.wb_count            646651687                       # cumulative count of insts written-back
system.switch_cpus0.iew.wb_fanout            0.572707                       # average fanout of values written-back
system.switch_cpus0.iew.wb_producers        502792120                       # num instructions producing a value
system.switch_cpus0.iew.wb_rate              2.775238                       # insts written-back per cycle
system.switch_cpus0.iew.wb_sent             650353097                       # cumulative count of insts sent to commit
system.switch_cpus0.int_regfile_reads       996336336                       # number of integer regfile reads
system.switch_cpus0.int_regfile_writes      570982183                       # number of integer regfile writes
system.switch_cpus0.ipc                      1.072890                       # IPC: Instructions Per Cycle
system.switch_cpus0.ipc_total                1.072890                       # IPC: Total IPC of All Threads
system.switch_cpus0.iq.FU_type_0::No_OpClass      3357210      0.51%      0.51% # Type of FU issued
system.switch_cpus0.iq.FU_type_0::IntAlu    511597082     77.19%     77.69% # Type of FU issued
system.switch_cpus0.iq.FU_type_0::IntMult      2777966      0.42%     78.11% # Type of FU issued
system.switch_cpus0.iq.FU_type_0::IntDiv      6876607      1.04%     79.15% # Type of FU issued
system.switch_cpus0.iq.FU_type_0::FloatAdd        48638      0.01%     79.16% # Type of FU issued
system.switch_cpus0.iq.FU_type_0::FloatCmp            0      0.00%     79.16% # Type of FU issued
system.switch_cpus0.iq.FU_type_0::FloatCvt          382      0.00%     79.16% # Type of FU issued
system.switch_cpus0.iq.FU_type_0::FloatMult            0      0.00%     79.16% # Type of FU issued
system.switch_cpus0.iq.FU_type_0::FloatMultAcc            0      0.00%     79.16% # Type of FU issued
system.switch_cpus0.iq.FU_type_0::FloatDiv            0      0.00%     79.16% # Type of FU issued
system.switch_cpus0.iq.FU_type_0::FloatMisc            0      0.00%     79.16% # Type of FU issued
system.switch_cpus0.iq.FU_type_0::FloatSqrt            0      0.00%     79.16% # Type of FU issued
system.switch_cpus0.iq.FU_type_0::SimdAdd            0      0.00%     79.16% # Type of FU issued
system.switch_cpus0.iq.FU_type_0::SimdAddAcc            0      0.00%     79.16% # Type of FU issued
system.switch_cpus0.iq.FU_type_0::SimdAlu        45115      0.01%     79.16% # Type of FU issued
system.switch_cpus0.iq.FU_type_0::SimdCmp            0      0.00%     79.16% # Type of FU issued
system.switch_cpus0.iq.FU_type_0::SimdCvt           24      0.00%     79.16% # Type of FU issued
system.switch_cpus0.iq.FU_type_0::SimdMisc       118302      0.02%     79.18% # Type of FU issued
system.switch_cpus0.iq.FU_type_0::SimdMult            0      0.00%     79.18% # Type of FU issued
system.switch_cpus0.iq.FU_type_0::SimdMultAcc            0      0.00%     79.18% # Type of FU issued
system.switch_cpus0.iq.FU_type_0::SimdShift            0      0.00%     79.18% # Type of FU issued
system.switch_cpus0.iq.FU_type_0::SimdShiftAcc            0      0.00%     79.18% # Type of FU issued
system.switch_cpus0.iq.FU_type_0::SimdDiv            0      0.00%     79.18% # Type of FU issued
system.switch_cpus0.iq.FU_type_0::SimdSqrt            0      0.00%     79.18% # Type of FU issued
system.switch_cpus0.iq.FU_type_0::SimdFloatAdd       113700      0.02%     79.20% # Type of FU issued
system.switch_cpus0.iq.FU_type_0::SimdFloatAlu            0      0.00%     79.20% # Type of FU issued
system.switch_cpus0.iq.FU_type_0::SimdFloatCmp            0      0.00%     79.20% # Type of FU issued
system.switch_cpus0.iq.FU_type_0::SimdFloatCvt       247905      0.04%     79.24% # Type of FU issued
system.switch_cpus0.iq.FU_type_0::SimdFloatDiv         3025      0.00%     79.24% # Type of FU issued
system.switch_cpus0.iq.FU_type_0::SimdFloatMisc            0      0.00%     79.24% # Type of FU issued
system.switch_cpus0.iq.FU_type_0::SimdFloatMult            0      0.00%     79.24% # Type of FU issued
system.switch_cpus0.iq.FU_type_0::SimdFloatMultAcc            0      0.00%     79.24% # Type of FU issued
system.switch_cpus0.iq.FU_type_0::SimdFloatSqrt            0      0.00%     79.24% # Type of FU issued
system.switch_cpus0.iq.FU_type_0::SimdReduceAdd            0      0.00%     79.24% # Type of FU issued
system.switch_cpus0.iq.FU_type_0::SimdReduceAlu            0      0.00%     79.24% # Type of FU issued
system.switch_cpus0.iq.FU_type_0::SimdReduceCmp            0      0.00%     79.24% # Type of FU issued
system.switch_cpus0.iq.FU_type_0::SimdFloatReduceAdd            0      0.00%     79.24% # Type of FU issued
system.switch_cpus0.iq.FU_type_0::SimdFloatReduceCmp            0      0.00%     79.24% # Type of FU issued
system.switch_cpus0.iq.FU_type_0::SimdAes            0      0.00%     79.24% # Type of FU issued
system.switch_cpus0.iq.FU_type_0::SimdAesMix            0      0.00%     79.24% # Type of FU issued
system.switch_cpus0.iq.FU_type_0::SimdSha1Hash            0      0.00%     79.24% # Type of FU issued
system.switch_cpus0.iq.FU_type_0::SimdSha1Hash2            0      0.00%     79.24% # Type of FU issued
system.switch_cpus0.iq.FU_type_0::SimdSha256Hash            0      0.00%     79.24% # Type of FU issued
system.switch_cpus0.iq.FU_type_0::SimdSha256Hash2            0      0.00%     79.24% # Type of FU issued
system.switch_cpus0.iq.FU_type_0::SimdShaSigma2            0      0.00%     79.24% # Type of FU issued
system.switch_cpus0.iq.FU_type_0::SimdShaSigma3            0      0.00%     79.24% # Type of FU issued
system.switch_cpus0.iq.FU_type_0::SimdPredAlu            0      0.00%     79.24% # Type of FU issued
system.switch_cpus0.iq.FU_type_0::MemRead    102539427     15.47%     94.71% # Type of FU issued
system.switch_cpus0.iq.FU_type_0::MemWrite     33166751      5.00%     99.71% # Type of FU issued
system.switch_cpus0.iq.FU_type_0::FloatMemRead      1025384      0.15%     99.86% # Type of FU issued
system.switch_cpus0.iq.FU_type_0::FloatMemWrite       897561      0.14%    100.00% # Type of FU issued
system.switch_cpus0.iq.FU_type_0::IprAccess            0      0.00%    100.00% # Type of FU issued
system.switch_cpus0.iq.FU_type_0::InstPrefetch            0      0.00%    100.00% # Type of FU issued
system.switch_cpus0.iq.FU_type_0::total     662815079                       # Type of FU issued
system.switch_cpus0.iq.fp_alu_accesses        2611284                       # Number of floating point alu accesses
system.switch_cpus0.iq.fp_inst_queue_reads      5133291                       # Number of floating instruction queue reads
system.switch_cpus0.iq.fp_inst_queue_wakeup_accesses      2426763                       # Number of floating instruction queue wakeup accesses
system.switch_cpus0.iq.fp_inst_queue_writes      3910508                       # Number of floating instruction queue writes
system.switch_cpus0.iq.fu_busy_cnt           11701433                       # FU busy when requested
system.switch_cpus0.iq.fu_busy_rate          0.017654                       # FU busy rate (busy events/executed inst)
system.switch_cpus0.iq.fu_full::No_OpClass            0      0.00%      0.00% # attempts to use FU when none available
system.switch_cpus0.iq.fu_full::IntAlu        9742447     83.26%     83.26% # attempts to use FU when none available
system.switch_cpus0.iq.fu_full::IntMult             0      0.00%     83.26% # attempts to use FU when none available
system.switch_cpus0.iq.fu_full::IntDiv              0      0.00%     83.26% # attempts to use FU when none available
system.switch_cpus0.iq.fu_full::FloatAdd            0      0.00%     83.26% # attempts to use FU when none available
system.switch_cpus0.iq.fu_full::FloatCmp            0      0.00%     83.26% # attempts to use FU when none available
system.switch_cpus0.iq.fu_full::FloatCvt            0      0.00%     83.26% # attempts to use FU when none available
system.switch_cpus0.iq.fu_full::FloatMult            0      0.00%     83.26% # attempts to use FU when none available
system.switch_cpus0.iq.fu_full::FloatMultAcc            0      0.00%     83.26% # attempts to use FU when none available
system.switch_cpus0.iq.fu_full::FloatDiv            0      0.00%     83.26% # attempts to use FU when none available
system.switch_cpus0.iq.fu_full::FloatMisc            0      0.00%     83.26% # attempts to use FU when none available
system.switch_cpus0.iq.fu_full::FloatSqrt            0      0.00%     83.26% # attempts to use FU when none available
system.switch_cpus0.iq.fu_full::SimdAdd             0      0.00%     83.26% # attempts to use FU when none available
system.switch_cpus0.iq.fu_full::SimdAddAcc            0      0.00%     83.26% # attempts to use FU when none available
system.switch_cpus0.iq.fu_full::SimdAlu             3      0.00%     83.26% # attempts to use FU when none available
system.switch_cpus0.iq.fu_full::SimdCmp             0      0.00%     83.26% # attempts to use FU when none available
system.switch_cpus0.iq.fu_full::SimdCvt             0      0.00%     83.26% # attempts to use FU when none available
system.switch_cpus0.iq.fu_full::SimdMisc            0      0.00%     83.26% # attempts to use FU when none available
system.switch_cpus0.iq.fu_full::SimdMult            0      0.00%     83.26% # attempts to use FU when none available
system.switch_cpus0.iq.fu_full::SimdMultAcc            0      0.00%     83.26% # attempts to use FU when none available
system.switch_cpus0.iq.fu_full::SimdShift            0      0.00%     83.26% # attempts to use FU when none available
system.switch_cpus0.iq.fu_full::SimdShiftAcc            0      0.00%     83.26% # attempts to use FU when none available
system.switch_cpus0.iq.fu_full::SimdDiv             0      0.00%     83.26% # attempts to use FU when none available
system.switch_cpus0.iq.fu_full::SimdSqrt            0      0.00%     83.26% # attempts to use FU when none available
system.switch_cpus0.iq.fu_full::SimdFloatAdd            0      0.00%     83.26% # attempts to use FU when none available
system.switch_cpus0.iq.fu_full::SimdFloatAlu            0      0.00%     83.26% # attempts to use FU when none available
system.switch_cpus0.iq.fu_full::SimdFloatCmp            0      0.00%     83.26% # attempts to use FU when none available
system.switch_cpus0.iq.fu_full::SimdFloatCvt            0      0.00%     83.26% # attempts to use FU when none available
system.switch_cpus0.iq.fu_full::SimdFloatDiv            0      0.00%     83.26% # attempts to use FU when none available
system.switch_cpus0.iq.fu_full::SimdFloatMisc            0      0.00%     83.26% # attempts to use FU when none available
system.switch_cpus0.iq.fu_full::SimdFloatMult            0      0.00%     83.26% # attempts to use FU when none available
system.switch_cpus0.iq.fu_full::SimdFloatMultAcc            0      0.00%     83.26% # attempts to use FU when none available
system.switch_cpus0.iq.fu_full::SimdFloatSqrt            0      0.00%     83.26% # attempts to use FU when none available
system.switch_cpus0.iq.fu_full::SimdReduceAdd            0      0.00%     83.26% # attempts to use FU when none available
system.switch_cpus0.iq.fu_full::SimdReduceAlu            0      0.00%     83.26% # attempts to use FU when none available
system.switch_cpus0.iq.fu_full::SimdReduceCmp            0      0.00%     83.26% # attempts to use FU when none available
system.switch_cpus0.iq.fu_full::SimdFloatReduceAdd            0      0.00%     83.26% # attempts to use FU when none available
system.switch_cpus0.iq.fu_full::SimdFloatReduceCmp            0      0.00%     83.26% # attempts to use FU when none available
system.switch_cpus0.iq.fu_full::SimdAes             0      0.00%     83.26% # attempts to use FU when none available
system.switch_cpus0.iq.fu_full::SimdAesMix            0      0.00%     83.26% # attempts to use FU when none available
system.switch_cpus0.iq.fu_full::SimdSha1Hash            0      0.00%     83.26% # attempts to use FU when none available
system.switch_cpus0.iq.fu_full::SimdSha1Hash2            0      0.00%     83.26% # attempts to use FU when none available
system.switch_cpus0.iq.fu_full::SimdSha256Hash            0      0.00%     83.26% # attempts to use FU when none available
system.switch_cpus0.iq.fu_full::SimdSha256Hash2            0      0.00%     83.26% # attempts to use FU when none available
system.switch_cpus0.iq.fu_full::SimdShaSigma2            0      0.00%     83.26% # attempts to use FU when none available
system.switch_cpus0.iq.fu_full::SimdShaSigma3            0      0.00%     83.26% # attempts to use FU when none available
system.switch_cpus0.iq.fu_full::SimdPredAlu            0      0.00%     83.26% # attempts to use FU when none available
system.switch_cpus0.iq.fu_full::MemRead       1428581     12.21%     95.47% # attempts to use FU when none available
system.switch_cpus0.iq.fu_full::MemWrite       436749      3.73%     99.20% # attempts to use FU when none available
system.switch_cpus0.iq.fu_full::FloatMemRead        56395      0.48%     99.68% # attempts to use FU when none available
system.switch_cpus0.iq.fu_full::FloatMemWrite        37258      0.32%    100.00% # attempts to use FU when none available
system.switch_cpus0.iq.fu_full::IprAccess            0      0.00%    100.00% # attempts to use FU when none available
system.switch_cpus0.iq.fu_full::InstPrefetch            0      0.00%    100.00% # attempts to use FU when none available
system.switch_cpus0.iq.int_alu_accesses     668548018                       # Number of integer alu accesses
system.switch_cpus0.iq.int_inst_queue_reads   1568312638                       # Number of integer instruction queue reads
system.switch_cpus0.iq.int_inst_queue_wakeup_accesses    644224924                       # Number of integer instruction queue wakeup accesses
system.switch_cpus0.iq.int_inst_queue_writes   1123344072                       # Number of integer instruction queue writes
system.switch_cpus0.iq.iqInstsAdded         793487495                       # Number of instructions added to the IQ (excludes non-spec)
system.switch_cpus0.iq.iqInstsIssued        662815079                       # Number of instructions issued
system.switch_cpus0.iq.iqNonSpecInstsAdded        37176                       # Number of non-speculative instructions added to the IQ
system.switch_cpus0.iq.iqSquashedInstsExamined    333690970                       # Number of squashed instructions iterated over during squash; mainly for profiling
system.switch_cpus0.iq.iqSquashedInstsIssued      3299730                       # Number of squashed instructions issued
system.switch_cpus0.iq.iqSquashedNonSpecRemoved        31780                       # Number of squashed non-spec instructions that were removed
system.switch_cpus0.iq.iqSquashedOperandsExamined    479788804                       # Number of squashed operands that are examined and possibly removed from graph
system.switch_cpus0.iq.issued_per_cycle::samples    232814611                       # Number of insts issued each cycle
system.switch_cpus0.iq.issued_per_cycle::mean     2.846965                       # Number of insts issued each cycle
system.switch_cpus0.iq.issued_per_cycle::stdev     2.613904                       # Number of insts issued each cycle
system.switch_cpus0.iq.issued_per_cycle::underflows            0      0.00%      0.00% # Number of insts issued each cycle
system.switch_cpus0.iq.issued_per_cycle::0     72508293     31.14%     31.14% # Number of insts issued each cycle
system.switch_cpus0.iq.issued_per_cycle::1     22613058      9.71%     40.86% # Number of insts issued each cycle
system.switch_cpus0.iq.issued_per_cycle::2     22242669      9.55%     50.41% # Number of insts issued each cycle
system.switch_cpus0.iq.issued_per_cycle::3     22150613      9.51%     59.93% # Number of insts issued each cycle
system.switch_cpus0.iq.issued_per_cycle::4     23047304      9.90%     69.82% # Number of insts issued each cycle
system.switch_cpus0.iq.issued_per_cycle::5     22290842      9.57%     79.40% # Number of insts issued each cycle
system.switch_cpus0.iq.issued_per_cycle::6     21144976      9.08%     88.48% # Number of insts issued each cycle
system.switch_cpus0.iq.issued_per_cycle::7     15783286      6.78%     95.26% # Number of insts issued each cycle
system.switch_cpus0.iq.issued_per_cycle::8     11033570      4.74%    100.00% # Number of insts issued each cycle
system.switch_cpus0.iq.issued_per_cycle::overflows            0      0.00%    100.00% # Number of insts issued each cycle
system.switch_cpus0.iq.issued_per_cycle::min_value            0                       # Number of insts issued each cycle
system.switch_cpus0.iq.issued_per_cycle::max_value            8                       # Number of insts issued each cycle
system.switch_cpus0.iq.issued_per_cycle::total    232814611                       # Number of insts issued each cycle
system.switch_cpus0.iq.rate                  2.844607                       # Inst issue rate
system.switch_cpus0.iq.vec_alu_accesses             0                       # Number of vector alu accesses
system.switch_cpus0.iq.vec_inst_queue_reads            0                       # Number of vector instruction queue reads
system.switch_cpus0.iq.vec_inst_queue_wakeup_accesses            0                       # Number of vector instruction queue wakeup accesses
system.switch_cpus0.iq.vec_inst_queue_writes            0                       # Number of vector instruction queue writes
system.switch_cpus0.memDep0.conflictingLoads      7006886                       # Number of conflicting loads.
system.switch_cpus0.memDep0.conflictingStores      4706183                       # Number of conflicting stores.
system.switch_cpus0.memDep0.insertedLoads    123918093                       # Number of loads inserted to the mem dependence unit.
system.switch_cpus0.memDep0.insertedStores     41202544                       # Number of stores inserted to the mem dependence unit.
system.switch_cpus0.misc_regfile_reads      259049226                       # number of misc regfile reads
system.switch_cpus0.misc_regfile_writes             1                       # number of misc regfile writes
system.switch_cpus0.numCycles               233007614                       # number of cpu cycles simulated
system.switch_cpus0.numWorkItemsCompleted            0                       # number of work items this cpu completed
system.switch_cpus0.numWorkItemsStarted             0                       # number of work items this cpu started
system.switch_cpus0.timesIdled                   1050                       # Number of times that the entire CPU went into an idle state and unscheduled itself
system.switch_cpus1.cc_regfile_reads        318652613                       # number of cc regfile reads
system.switch_cpus1.cc_regfile_writes       224801911                       # number of cc regfile writes
system.switch_cpus1.committedInsts          249990733                       # Number of Instructions Simulated
system.switch_cpus1.committedOps            459832348                       # Number of Ops (including micro ops) Simulated
system.switch_cpus1.cpi                      0.932065                       # CPI: Cycles Per Instruction
system.switch_cpus1.cpi_total                0.932065                       # CPI: Total CPI of All Threads
system.switch_cpus1.fp_regfile_reads          1975899                       # number of floating regfile reads
system.switch_cpus1.fp_regfile_writes         1431582                       # number of floating regfile writes
system.switch_cpus1.idleCycles                 194399                       # Total number of cycles that the CPU has spent unscheduled due to idling
system.switch_cpus1.iew.branchMispredicts      5861967                       # Number of branch mispredicts detected at execute
system.switch_cpus1.iew.exec_branches        60470476                       # Number of branches executed
system.switch_cpus1.iew.exec_nop                    0                       # number of nop insts executed
system.switch_cpus1.iew.exec_rate            2.796451                       # Inst execution rate
system.switch_cpus1.iew.exec_refs           133028912                       # number of memory reference insts executed
system.switch_cpus1.iew.exec_stores          33047253                       # Number of stores executed
system.switch_cpus1.iew.exec_swp                    0                       # number of swp insts executed
system.switch_cpus1.iew.iewBlockCycles       40224076                       # Number of cycles IEW is blocking
system.switch_cpus1.iew.iewDispLoadInsts    123923594                       # Number of dispatched load instructions
system.switch_cpus1.iew.iewDispNonSpecInsts          109                       # Number of dispatched non-speculative instructions
system.switch_cpus1.iew.iewDispSquashedInsts       159901                       # Number of squashed instructions skipped by dispatch
system.switch_cpus1.iew.iewDispStoreInsts     41205119                       # Number of dispatched store instructions
system.switch_cpus1.iew.iewDispatchedInsts    793565752                       # Number of instructions dispatched to IQ
system.switch_cpus1.iew.iewExecLoadInsts     99981659                       # Number of load instructions executed
system.switch_cpus1.iew.iewExecSquashedInsts     11235247                       # Number of squashed instructions skipped in execute
system.switch_cpus1.iew.iewExecutedInsts    651594453                       # Number of executed instructions
system.switch_cpus1.iew.iewIQFullEvents         12775                       # Number of times the IQ has become full, causing a stall
system.switch_cpus1.iew.iewIdleCycles               0                       # Number of cycles IEW is idle
system.switch_cpus1.iew.iewLSQFullEvents       166976                       # Number of times the LSQ has become full, causing a stall
system.switch_cpus1.iew.iewSquashCycles       5214156                       # Number of cycles IEW is squashing
system.switch_cpus1.iew.iewUnblockCycles       178800                       # Number of cycles IEW is unblocking
system.switch_cpus1.iew.memOrderViolationEvents        40675                       # Number of memory order violations
system.switch_cpus1.iew.predictedNotTakenIncorrect      3219434                       # Number of branches that were predicted not taken incorrectly
system.switch_cpus1.iew.predictedTakenIncorrect      2642533                       # Number of branches that were predicted taken incorrectly
system.switch_cpus1.iew.wb_consumers        877943867                       # num instructions consuming a value
system.switch_cpus1.iew.wb_count            646665152                       # cumulative count of insts written-back
system.switch_cpus1.iew.wb_fanout            0.572702                       # average fanout of values written-back
system.switch_cpus1.iew.wb_producers        502799774                       # num instructions producing a value
system.switch_cpus1.iew.wb_rate              2.775296                       # insts written-back per cycle
system.switch_cpus1.iew.wb_sent             650366043                       # cumulative count of insts sent to commit
system.switch_cpus1.int_regfile_reads       996351755                       # number of integer regfile reads
system.switch_cpus1.int_regfile_writes      570991733                       # number of integer regfile writes
system.switch_cpus1.ipc                      1.072887                       # IPC: Instructions Per Cycle
system.switch_cpus1.ipc_total                1.072887                       # IPC: Total IPC of All Threads
system.switch_cpus1.iq.FU_type_0::No_OpClass      3357324      0.51%      0.51% # Type of FU issued
system.switch_cpus1.iq.FU_type_0::IntAlu    511607961     77.19%     77.69% # Type of FU issued
system.switch_cpus1.iq.FU_type_0::IntMult      2777935      0.42%     78.11% # Type of FU issued
system.switch_cpus1.iq.FU_type_0::IntDiv      6876706      1.04%     79.15% # Type of FU issued
system.switch_cpus1.iq.FU_type_0::FloatAdd        48627      0.01%     79.16% # Type of FU issued
system.switch_cpus1.iq.FU_type_0::FloatCmp            0      0.00%     79.16% # Type of FU issued
system.switch_cpus1.iq.FU_type_0::FloatCvt          386      0.00%     79.16% # Type of FU issued
system.switch_cpus1.iq.FU_type_0::FloatMult            0      0.00%     79.16% # Type of FU issued
system.switch_cpus1.iq.FU_type_0::FloatMultAcc            0      0.00%     79.16% # Type of FU issued
system.switch_cpus1.iq.FU_type_0::FloatDiv            0      0.00%     79.16% # Type of FU issued
system.switch_cpus1.iq.FU_type_0::FloatMisc            0      0.00%     79.16% # Type of FU issued
system.switch_cpus1.iq.FU_type_0::FloatSqrt            0      0.00%     79.16% # Type of FU issued
system.switch_cpus1.iq.FU_type_0::SimdAdd            0      0.00%     79.16% # Type of FU issued
system.switch_cpus1.iq.FU_type_0::SimdAddAcc            0      0.00%     79.16% # Type of FU issued
system.switch_cpus1.iq.FU_type_0::SimdAlu        45074      0.01%     79.16% # Type of FU issued
system.switch_cpus1.iq.FU_type_0::SimdCmp            0      0.00%     79.16% # Type of FU issued
system.switch_cpus1.iq.FU_type_0::SimdCvt           24      0.00%     79.16% # Type of FU issued
system.switch_cpus1.iq.FU_type_0::SimdMisc       118366      0.02%     79.18% # Type of FU issued
system.switch_cpus1.iq.FU_type_0::SimdMult            0      0.00%     79.18% # Type of FU issued
system.switch_cpus1.iq.FU_type_0::SimdMultAcc            0      0.00%     79.18% # Type of FU issued
system.switch_cpus1.iq.FU_type_0::SimdShift            0      0.00%     79.18% # Type of FU issued
system.switch_cpus1.iq.FU_type_0::SimdShiftAcc            0      0.00%     79.18% # Type of FU issued
system.switch_cpus1.iq.FU_type_0::SimdDiv            0      0.00%     79.18% # Type of FU issued
system.switch_cpus1.iq.FU_type_0::SimdSqrt            0      0.00%     79.18% # Type of FU issued
system.switch_cpus1.iq.FU_type_0::SimdFloatAdd       113706      0.02%     79.20% # Type of FU issued
system.switch_cpus1.iq.FU_type_0::SimdFloatAlu            0      0.00%     79.20% # Type of FU issued
system.switch_cpus1.iq.FU_type_0::SimdFloatCmp            0      0.00%     79.20% # Type of FU issued
system.switch_cpus1.iq.FU_type_0::SimdFloatCvt       247996      0.04%     79.24% # Type of FU issued
system.switch_cpus1.iq.FU_type_0::SimdFloatDiv         3054      0.00%     79.24% # Type of FU issued
system.switch_cpus1.iq.FU_type_0::SimdFloatMisc            0      0.00%     79.24% # Type of FU issued
system.switch_cpus1.iq.FU_type_0::SimdFloatMult            0      0.00%     79.24% # Type of FU issued
system.switch_cpus1.iq.FU_type_0::SimdFloatMultAcc            0      0.00%     79.24% # Type of FU issued
system.switch_cpus1.iq.FU_type_0::SimdFloatSqrt            0      0.00%     79.24% # Type of FU issued
system.switch_cpus1.iq.FU_type_0::SimdReduceAdd            0      0.00%     79.24% # Type of FU issued
system.switch_cpus1.iq.FU_type_0::SimdReduceAlu            0      0.00%     79.24% # Type of FU issued
system.switch_cpus1.iq.FU_type_0::SimdReduceCmp            0      0.00%     79.24% # Type of FU issued
system.switch_cpus1.iq.FU_type_0::SimdFloatReduceAdd            0      0.00%     79.24% # Type of FU issued
system.switch_cpus1.iq.FU_type_0::SimdFloatReduceCmp            0      0.00%     79.24% # Type of FU issued
system.switch_cpus1.iq.FU_type_0::SimdAes            0      0.00%     79.24% # Type of FU issued
system.switch_cpus1.iq.FU_type_0::SimdAesMix            0      0.00%     79.24% # Type of FU issued
system.switch_cpus1.iq.FU_type_0::SimdSha1Hash            0      0.00%     79.24% # Type of FU issued
system.switch_cpus1.iq.FU_type_0::SimdSha1Hash2            0      0.00%     79.24% # Type of FU issued
[...]
system.switch_cpus3.commit.numCommittedDist::1     55458446     29.56%     56.59% # Number of insts commited each cycle
system.switch_cpus3.commit.numCommittedDist::2     15972979      8.52%     65.11% # Number of insts commited each cycle
system.switch_cpus3.commit.numCommittedDist::3     19031394     10.15%     75.25% # Number of insts commited each cycle
system.switch_cpus3.commit.numCommittedDist::4      8542909      4.55%     79.81% # Number of insts commited each cycle
system.switch_cpus3.commit.numCommittedDist::5      4214036      2.25%     82.05% # Number of insts commited each cycle
system.switch_cpus3.commit.numCommittedDist::6      3312940      1.77%     83.82% # Number of insts commited each cycle
system.switch_cpus3.commit.numCommittedDist::7      2559028      1.36%     85.19% # Number of insts commited each cycle
system.switch_cpus3.commit.numCommittedDist::8     27789598     14.81%    100.00% # Number of insts commited each cycle
system.switch_cpus3.commit.numCommittedDist::overflows            0      0.00%    100.00% # Number of insts commited each cycle
system.switch_cpus3.commit.numCommittedDist::min_value            0                       # Number of insts commited each cycle
system.switch_cpus3.commit.numCommittedDist::max_value            8                       # Number of insts commited each cycle
system.switch_cpus3.commit.numCommittedDist::total    187581454                       # Number of insts commited each cycle
system.switch_cpus3.commit.instsCommitted    250000000                       # Number of instructions committed
system.switch_cpus3.commit.opsCommitted     459848022                       # Number of ops (including micro ops) committed
system.switch_cpus3.commit.memRefs           94323510                       # Number of memory references committed
system.switch_cpus3.commit.loads             69207099                       # Number of loads committed
system.switch_cpus3.commit.amos                     0                       # Number of atomic instructions committed
system.switch_cpus3.commit.membars                 80                       # Number of memory barriers committed
system.switch_cpus3.commit.branches          44717219                       # Number of branches committed
system.switch_cpus3.commit.vector                   0                       # Number of committed Vector instructions.
system.switch_cpus3.commit.floating           1967972                       # Number of committed floating point instructions.
system.switch_cpus3.commit.integer          456292687                       # Number of committed integer instructions.
system.switch_cpus3.commit.functionCalls      6687416                       # Number of function calls committed.
system.switch_cpus3.commit.committedInstType_0::No_OpClass      2969199      0.65%      0.65% # Class of committed instruction
system.switch_cpus3.commit.committedInstType_0::IntAlu    352572518     76.67%     77.32% # Class of committed instruction
system.switch_cpus3.commit.committedInstType_0::IntMult      2723514      0.59%     77.91% # Class of committed instruction
system.switch_cpus3.commit.committedInstType_0::IntDiv      6755289      1.47%     79.38% # Class of committed instruction
system.switch_cpus3.commit.committedInstType_0::FloatAdd        32287      0.01%     79.39% # Class of committed instruction
system.switch_cpus3.commit.committedInstType_0::FloatCmp            0      0.00%     79.39% # Class of committed instruction
system.switch_cpus3.commit.committedInstType_0::FloatCvt            0      0.00%     79.39% # Class of committed instruction
system.switch_cpus3.commit.committedInstType_0::FloatMult            0      0.00%     79.39% # Class of committed instruction
system.switch_cpus3.commit.committedInstType_0::FloatMultAcc            0      0.00%     79.39% # Class of committed instruction
system.switch_cpus3.commit.committedInstType_0::FloatDiv            0      0.00%     79.39% # Class of committed instruction
system.switch_cpus3.commit.committedInstType_0::FloatMisc            0      0.00%     79.39% # Class of committed instruction
system.switch_cpus3.commit.committedInstType_0::FloatSqrt            0      0.00%     79.39% # Class of committed instruction
system.switch_cpus3.commit.committedInstType_0::SimdAdd            0      0.00%     79.39% # Class of committed instruction
system.switch_cpus3.commit.committedInstType_0::SimdAddAcc            0      0.00%     79.39% # Class of committed instruction
system.switch_cpus3.commit.committedInstType_0::SimdAlu        34388      0.01%     79.39% # Class of committed instruction
system.switch_cpus3.commit.committedInstType_0::SimdCmp            0      0.00%     79.39% # Class of committed instruction
system.switch_cpus3.commit.committedInstType_0::SimdCvt           24      0.00%     79.39% # Class of committed instruction
system.switch_cpus3.commit.committedInstType_0::SimdMisc       107722      0.02%     79.42% # Class of committed instruction
system.switch_cpus3.commit.committedInstType_0::SimdMult            0      0.00%     79.42% # Class of committed instruction
system.switch_cpus3.commit.committedInstType_0::SimdMultAcc            0      0.00%     79.42% # Class of committed instruction
system.switch_cpus3.commit.committedInstType_0::SimdShift            0      0.00%     79.42% # Class of committed instruction
system.switch_cpus3.commit.committedInstType_0::SimdShiftAcc            0      0.00%     79.42% # Class of committed instruction
system.switch_cpus3.commit.committedInstType_0::SimdDiv            0      0.00%     79.42% # Class of committed instruction
system.switch_cpus3.commit.committedInstType_0::SimdSqrt            0      0.00%     79.42% # Class of committed instruction
system.switch_cpus3.commit.committedInstType_0::SimdFloatAdd       103568      0.02%     79.44% # Class of committed instruction
system.switch_cpus3.commit.committedInstType_0::SimdFloatAlu            0      0.00%     79.44% # Class of committed instruction
system.switch_cpus3.commit.committedInstType_0::SimdFloatCmp            0      0.00%     79.44% # Class of committed instruction
system.switch_cpus3.commit.committedInstType_0::SimdFloatCvt       224688      0.05%     79.49% # Class of committed instruction
system.switch_cpus3.commit.committedInstType_0::SimdFloatDiv         1315      0.00%     79.49% # Class of committed instruction
system.switch_cpus3.commit.committedInstType_0::SimdFloatMisc            0      0.00%     79.49% # Class of committed instruction
system.switch_cpus3.commit.committedInstType_0::SimdFloatMult            0      0.00%     79.49% # Class of committed instruction
system.switch_cpus3.commit.committedInstType_0::SimdFloatMultAcc            0      0.00%     79.49% # Class of committed instruction
system.switch_cpus3.commit.committedInstType_0::SimdFloatSqrt            0      0.00%     79.49% # Class of committed instruction
system.switch_cpus3.commit.committedInstType_0::SimdReduceAdd            0      0.00%     79.49% # Class of committed instruction
system.switch_cpus3.commit.committedInstType_0::SimdReduceAlu            0      0.00%     79.49% # Class of committed instruction
system.switch_cpus3.commit.committedInstType_0::SimdReduceCmp            0      0.00%     79.49% # Class of committed instruction
system.switch_cpus3.commit.committedInstType_0::SimdFloatReduceAdd            0      0.00%     79.49% # Class of committed instruction
system.switch_cpus3.commit.committedInstType_0::SimdFloatReduceCmp            0      0.00%     79.49% # Class of committed instruction
system.switch_cpus3.commit.committedInstType_0::SimdAes            0      0.00%     79.49% # Class of committed instruction
system.switch_cpus3.commit.committedInstType_0::SimdAesMix            0      0.00%     79.49% # Class of committed instruction
system.switch_cpus3.commit.committedInstType_0::SimdSha1Hash            0      0.00%     79.49% # Class of committed instruction
system.switch_cpus3.commit.committedInstType_0::SimdSha1Hash2            0      0.00%     79.49% # Class of committed instruction
system.switch_cpus3.commit.committedInstType_0::SimdSha256Hash            0      0.00%     79.49% # Class of committed instruction
system.switch_cpus3.commit.committedInstType_0::SimdSha256Hash2            0      0.00%     79.49% # Class of committed instruction
system.switch_cpus3.commit.committedInstType_0::SimdShaSigma2            0      0.00%     79.49% # Class of committed instruction
system.switch_cpus3.commit.committedInstType_0::SimdShaSigma3            0      0.00%     79.49% # Class of committed instruction
system.switch_cpus3.commit.committedInstType_0::SimdPredAlu            0      0.00%     79.49% # Class of committed instruction
system.switch_cpus3.commit.committedInstType_0::MemRead     68378736     14.87%     94.36% # Class of committed instruction
system.switch_cpus3.commit.committedInstType_0::MemWrite     24491507      5.33%     99.68% # Class of committed instruction
system.switch_cpus3.commit.committedInstType_0::FloatMemRead       828363      0.18%     99.86% # Class of committed instruction
system.switch_cpus3.commit.committedInstType_0::FloatMemWrite       624904      0.14%    100.00% # Class of committed instruction
system.switch_cpus3.commit.committedInstType_0::IprAccess            0      0.00%    100.00% # Class of committed instruction
system.switch_cpus3.commit.committedInstType_0::InstPrefetch            0      0.00%    100.00% # Class of committed instruction
system.switch_cpus3.commit.committedInstType_0::total    459848022                       # Class of committed instruction
system.switch_cpus3.commit.commitEligibleSamples     27789598                       # number cycles where commit BW limit reached
system.switch_cpus3.decode.idleCycles        22325210                       # Number of cycles decode is idle
system.switch_cpus3.decode.blockedCycles     83407845                       # Number of cycles decode is blocked
system.switch_cpus3.decode.runCycles         95531820                       # Number of cycles decode is running
system.switch_cpus3.decode.unblockCycles     26336787                       # Number of cycles decode is unblocking
system.switch_cpus3.decode.squashCycles       5213751                       # Number of cycles decode is squashing
system.switch_cpus3.decode.branchResolved     40267168                       # Number of times decode resolved a  branch
system.switch_cpus3.decode.branchMispred       342899                       # Number of times decode detected a branch misprediction
system.switch_cpus3.decode.decodedInsts     881307431                       # Number of instructions handled by decode
system.switch_cpus3.decode.squashedInsts      1952520                       # Number of squashed instructions handled by decode
system.switch_cpus3.dtb.rdAccesses           99990048                       # TLB accesses on read requests
system.switch_cpus3.dtb.wrAccesses           33052180                       # TLB accesses on write requests
system.switch_cpus3.dtb.rdMisses               131204                       # TLB misses on read requests
system.switch_cpus3.dtb.wrMisses                 5781                       # TLB misses on write requests
system.switch_cpus3.dtb.walker.power_state.pwrStateResidencyTicks::UNDEFINED 18651236436990                       # Cumulative time (in ticks) in various power states
system.switch_cpus3.fetch.icacheStallCycles      4981653                       # Number of cycles fetch is stalled on an Icache miss
system.switch_cpus3.fetch.insts             535820955                       # Number of instructions fetch has processed
system.switch_cpus3.fetch.branches           98955113                       # Number of branches that fetch encountered
system.switch_cpus3.fetch.predictedBranches     57462889                       # Number of branches that fetch has predicted taken
system.switch_cpus3.fetch.cycles            222290832                       # Number of cycles fetch has run and was not squashing or blocked
system.switch_cpus3.fetch.squashCycles       11080392                       # Number of cycles fetch has spent squashing
system.switch_cpus3.fetch.miscStallCycles          314                       # Number of cycles fetch has spent waiting on interrupts,or bad addresses, or out of MSHRs
system.switch_cpus3.fetch.pendingTrapStallCycles         2429                       # Number of stall cycles due to pending traps
system.switch_cpus3.fetch.cacheLines         81629806                       # Number of cache lines fetched
system.switch_cpus3.fetch.icacheSquashes        11603                       # Number of outstanding Icache misses that were squashed
system.switch_cpus3.fetch.nisnDist::samples    232815424                       # Number of instructions fetched each cycle (Total)
system.switch_cpus3.fetch.nisnDist::mean     4.176575                       # Number of instructions fetched each cycle (Total)
system.switch_cpus3.fetch.nisnDist::stdev     3.379702                       # Number of instructions fetched each cycle (Total)
system.switch_cpus3.fetch.nisnDist::underflows            0      0.00%      0.00% # Number of instructions fetched each cycle (Total)
system.switch_cpus3.fetch.nisnDist::0        68083632     29.24%     29.24% # Number of instructions fetched each cycle (Total)
system.switch_cpus3.fetch.nisnDist::1        12384747      5.32%     34.56% # Number of instructions fetched each cycle (Total)
system.switch_cpus3.fetch.nisnDist::2         9604984      4.13%     38.69% # Number of instructions fetched each cycle (Total)
system.switch_cpus3.fetch.nisnDist::3        14993433      6.44%     45.13% # Number of instructions fetched each cycle (Total)
system.switch_cpus3.fetch.nisnDist::4        10953446      4.70%     49.83% # Number of instructions fetched each cycle (Total)
system.switch_cpus3.fetch.nisnDist::5        16050179      6.89%     56.73% # Number of instructions fetched each cycle (Total)
system.switch_cpus3.fetch.nisnDist::6        11991772      5.15%     61.88% # Number of instructions fetched each cycle (Total)
system.switch_cpus3.fetch.nisnDist::7        10245201      4.40%     66.28% # Number of instructions fetched each cycle (Total)
system.switch_cpus3.fetch.nisnDist::8        78508030     33.72%    100.00% # Number of instructions fetched each cycle (Total)
system.switch_cpus3.fetch.nisnDist::overflows            0      0.00%    100.00% # Number of instructions fetched each cycle (Total)
system.switch_cpus3.fetch.nisnDist::min_value            0                       # Number of instructions fetched each cycle (Total)
system.switch_cpus3.fetch.nisnDist::max_value            8                       # Number of instructions fetched each cycle (Total)
system.switch_cpus3.fetch.nisnDist::total    232815424                       # Number of instructions fetched each cycle (Total)
system.switch_cpus3.fetch.branchRate         0.424686                       # Number of branch fetches per cycle
system.switch_cpus3.fetch.rate               2.299586                       # Number of inst fetches per cycle
system.switch_cpus3.itb.rdAccesses                  0                       # TLB accesses on read requests
system.switch_cpus3.itb.wrAccesses           81630179                       # TLB accesses on write requests
system.switch_cpus3.itb.rdMisses                    0                       # TLB misses on read requests
system.switch_cpus3.itb.wrMisses                  467                       # TLB misses on write requests
system.switch_cpus3.itb.walker.power_state.pwrStateResidencyTicks::UNDEFINED 18651236436990                       # Cumulative time (in ticks) in various power states
system.switch_cpus3.lsq0.forwLoads           13030702                       # Number of loads that had data forwarded from stores
system.switch_cpus3.lsq0.squashedLoads       54721003                       # Number of loads squashed
system.switch_cpus3.lsq0.ignoredResponses        64624                       # Number of memory responses ignored because the instruction is squashed
system.switch_cpus3.lsq0.memOrderViolation        40571                       # Number of memory ordering violations
system.switch_cpus3.lsq0.squashedStores      16087358                       # Number of stores squashed
system.switch_cpus3.lsq0.rescheduledLoads        40074                       # Number of loads that were rescheduled
system.switch_cpus3.lsq0.blockedByCache             7                       # Number of times an access to memory failed due to the cache being blocked
system.switch_cpus3.power_state.pwrStateResidencyTicks::OFF  77591545785                       # Cumulative time (in ticks) in various power states
system.switch_cpus3.rename.squashCycles       5213751                       # Number of cycles rename is squashing
system.switch_cpus3.rename.idleCycles        33580469                       # Number of cycles rename is idle
system.switch_cpus3.rename.blockCycles       43447317                       # Number of cycles rename is blocking
system.switch_cpus3.rename.serializeStallCycles            5                       # count of cycles rename stalledfor serializing inst
system.switch_cpus3.rename.runCycles        109685398                       # Number of cycles rename is running
system.switch_cpus3.rename.unblockCycles     40888473                       # Number of cycles rename is unblocking
system.switch_cpus3.rename.renamedInsts     849487064                       # Number of instructions processed by rename
system.switch_cpus3.rename.ROBFullEvents       379848                       # Number of times rename has blocked due to ROB full
system.switch_cpus3.rename.IQFullEvents      30889900                       # Number of times rename has blocked due to IQ full
system.switch_cpus3.rename.LQFullEvents       2308468                       # Number of times rename has blocked due to LQ full
system.switch_cpus3.rename.SQFullEvents       3456039                       # Number of times rename has blocked due to SQ full
system.switch_cpus3.rename.fullRegistersEvents            9                       # Number of times there has been no free registers
system.switch_cpus3.rename.renamedOperands   1066896157                       # Number of destination operands rename has renamed
system.switch_cpus3.rename.lookups         2186291033                       # Number of register rename lookups that rename has made
system.switch_cpus3.rename.intLookups      1365212801                       # Number of integer rename lookups
system.switch_cpus3.rename.fpLookups          2571418                       # Number of floating rename lookups
system.switch_cpus3.rename.committedMaps    585181309                       # Number of HB maps that are committed
system.switch_cpus3.rename.undoneMaps       481714843                       # Number of HB maps that are undone due to squashing
system.switch_cpus3.rename.serializing              1                       # count of serializing insts renamed
system.switch_cpus3.rename.tempSerializing            1                       # count of temporary serializing insts renamed
system.switch_cpus3.rename.skidInsts         95767757                       # count of insts added to the skid buffer
system.switch_cpus3.rob.reads               951267698                       # The number of ROB reads
system.switch_cpus3.rob.writes             1629408073                       # The number of ROB writes
system.switch_cpus3.thread0.numInsts        250000000                       # Number of Instructions committed
system.switch_cpus3.thread0.numOps          459848022                       # Number of Ops committed
system.switch_cpus3.thread0.numMemRefs              0                       # Number of Memory References
system.voltage_domain.voltage                       1                       # Voltage in Volts

---------- End Simulation Statistics   ----------
