Command line:
./runscript_pride.sh mix13 RFM10.BR2.4C 4 2017 --rh_defense --rh_mitigation=RFM --rh_rfm_per_trefi=10 --rh_rfm_blast_radius=2 --rh_rfm_maxacts_per_trefi=79
Global frequency set at 1000000000000 ticks per second
RFM details - rfm_act_threshold: 7, blast_radius: 2, delay_per_rfm: 175000 ps. sample_rate: 0.125000
RH Defense config: RFM, Bus Delay: 0, rfms_per_trefi: 10, rfm_act_threshold: 7, blast_radius: 2,rfm_delay_per_act: 45000 ps.
DRAM config: RowsPerBank: 65536, BanksPerRank: 32, RanksPerChannel: 1
warn: Sockets disabled, not accepting gdb connections
warn: CoherentXBar system.cpu0.mmucache.mmubus has no snooping ports attached!
warn: CoherentXBar system.cpu1.mmucache.mmubus has no snooping ports attached!
warn: CoherentXBar system.cpu2.mmucache.mmubus has no snooping ports attached!
warn: CoherentXBar system.cpu3.mmucache.mmubus has no snooping ports attached!
warn: Checkpoints for file descriptors currently do not work.
warn: Checkpoints for file descriptors currently do not work.
warn: Checkpoints for file descriptors currently do not work.
warn: Checkpoints for file descriptors currently do not work.
gem5 Simulator System.  http://gem5.org
gem5 is copyrighted software; use the --copyright option for details.

gem5 version 20.1.0.5
gem5 compiled Jul 12 2024 12:42:38
gem5 started Aug  1 2024 19:37:15
gem5 executing on a07dda8b130c, pid 252139
command line: /home/user/PrIDE/performance/gem5/build/X86/gem5.opt --outdir=/home/user/PrIDE/performance/gem5/stats/pride_multiprogram_16GBmem_250Mn.SPEC2017.C4/RFM10.BR2.4C/mix13 /home/user/PrIDE/performance/gem5/configs/example/se_rq_spec_config_multicore.py --redirects /lib64=/home/utils/gcc-6.2.0/lib64 --benchmark=mix13 --benchmark_stdout=/home/user/PrIDE/performance/gem5/stats/pride_multiprogram_16GBmem_250Mn.SPEC2017.C4/RFM10.BR2.4C/mix13/mix13.out --benchmark_stderr=/home/user/PrIDE/performance/gem5/stats/pride_multiprogram_16GBmem_250Mn.SPEC2017.C4/RFM10.BR2.4C/mix13/mix13.err --spec-version=2017 --rh_defense --rh_mitigation=RFM --rh_rfm_per_trefi=10 --rh_rfm_blast_radius=2 --rh_rfm_maxacts_per_trefi=79 --num-cpus=4 --mem-size=16GB --mem-type=DDR5_2400_32x4 --mem-ranks=1 --mem-channels=1 --checkpoint-dir=/home/user/PrIDE/performance/gem5/cpts-DDR5/multiprogram_16GBmem_25Bn.SPEC2017.C4/mix13-1-ref-x86 --checkpoint-restore=25000000000 --at-instruction --cpu-type DerivO3CPU --caches --l2cache --l1d_size=32kB --l1i_size=32kB --l2_size=256kB --l3_size=4MB --l1d_assoc=8 --l1i_assoc=8 --l2_assoc=16 --l3_assoc=16 --cpu-clock=3GHz --sys-clock=3GHz --maxinsts=250000000 --prog-interval=300Hz

info: Standard input is not a terminal, disabling listeners.
Benchmark- 0   lbm
Selected benchmark
--> lbm
CMD: ['/opt/spec2017/benchspec/CPU/519.lbm_r/run/run_base_refrate_gem5_se-m64.0000/lbm_r_base.gem5_se-m64', '3000', 'reference.dat', '0', '0', '/opt/spec2017/benchspec/CPU/519.lbm_r/run/run_base_refrate_gem5_se-m64.0000/100_100_130_ldc.of']
CWD: /opt/spec2017/benchspec/CPU/519.lbm_r/run/run_base_refrate_gem5_se-m64.0000/
Process stdout file: /home/user/PrIDE/performance/gem5/stats/pride_multiprogram_16GBmem_250Mn.SPEC2017.C4/RFM10.BR2.4C/mix13/mix13.out_0
Process stderr file: /home/user/PrIDE/performance/gem5/stats/pride_multiprogram_16GBmem_250Mn.SPEC2017.C4/RFM10.BR2.4C/mix13/mix13.err_0
Benchmark- 1   mcf
Selected benchmark
--> mcf
CMD: ['/opt/spec2017/benchspec/CPU/505.mcf_r/run/run_base_refrate_gem5_se-m64.0000/mcf_r_base.gem5_se-m64', '/opt/spec2017/benchspec/CPU/505.mcf_r/run/run_base_refrate_gem5_se-m64.0000/inp.in']
CWD: /opt/spec2017/benchspec/CPU/505.mcf_r/run/run_base_refrate_gem5_se-m64.0000/
Process stdout file: /home/user/PrIDE/performance/gem5/stats/pride_multiprogram_16GBmem_250Mn.SPEC2017.C4/RFM10.BR2.4C/mix13/mix13.out_1
Process stderr file: /home/user/PrIDE/performance/gem5/stats/pride_multiprogram_16GBmem_250Mn.SPEC2017.C4/RFM10.BR2.4C/mix13/mix13.err_1
Benchmark- 2   wrf
Selected benchmark
--> wrf
CMD: ['/opt/spec2017/benchspec/CPU/521.wrf_r/run/run_base_refrate_gem5_se-m64.0000/wrf_r_base.gem5_se-m64']
CWD: /opt/spec2017/benchspec/CPU/521.wrf_r/run/run_base_refrate_gem5_se-m64.0000/
Process stdout file: /home/user/PrIDE/performance/gem5/stats/pride_multiprogram_16GBmem_250Mn.SPEC2017.C4/RFM10.BR2.4C/mix13/mix13.out_2
Process stderr file: /home/user/PrIDE/performance/gem5/stats/pride_multiprogram_16GBmem_250Mn.SPEC2017.C4/RFM10.BR2.4C/mix13/mix13.err_2
Benchmark- 3   exchange2
Selected benchmark
--> exchange2
CMD: ['/opt/spec2017/benchspec/CPU/548.exchange2_r/run/run_base_refrate_gem5_se-m64.0000/exchange2_r_base.gem5_se-m64', '6']
CWD: /opt/spec2017/benchspec/CPU/548.exchange2_r/run/run_base_refrate_gem5_se-m64.0000/
Process stdout file: /home/user/PrIDE/performance/gem5/stats/pride_multiprogram_16GBmem_250Mn.SPEC2017.C4/RFM10.BR2.4C/mix13/mix13.out_3
Process stderr file: /home/user/PrIDE/performance/gem5/stats/pride_multiprogram_16GBmem_250Mn.SPEC2017.C4/RFM10.BR2.4C/mix13/mix13.err_3
Workload-0: 
['/opt/spec2017/benchspec/CPU/519.lbm_r/run/run_base_refrate_gem5_se-m64.0000/lbm_r_base.gem5_se-m64', '3000', 'reference.dat', '0', '0', '/opt/spec2017/benchspec/CPU/519.lbm_r/run/run_base_refrate_gem5_se-m64.0000/100_100_130_ldc.of']
Workload-1: 
['/opt/spec2017/benchspec/CPU/505.mcf_r/run/run_base_refrate_gem5_se-m64.0000/mcf_r_base.gem5_se-m64', '/opt/spec2017/benchspec/CPU/505.mcf_r/run/run_base_refrate_gem5_se-m64.0000/inp.in']
Workload-2: 
['/opt/spec2017/benchspec/CPU/521.wrf_r/run/run_base_refrate_gem5_se-m64.0000/wrf_r_base.gem5_se-m64']
Workload-3: 
['/opt/spec2017/benchspec/CPU/548.exchange2_r/run/run_base_refrate_gem5_se-m64.0000/exchange2_r_base.gem5_se-m64', '6']
defense_enable:  True  detector:  MG  mitigation:  RFM  threshold:  800
mg_entries:  1700
rfm_maxacts_per_trefi:  79 rfm_per_trefi:  10 rfm_blast_radius:  2
Switch at curTick count:10000
warn: membus.master is deprecated. `master` is now called `mem_side_ports`
warn: No dot file generated. Please install pydot to generate the dot file and pdf.
info: Entering event queue @ 13719052595952.  Starting simulation...
info: Entering event queue @ 13719052605952.  Starting simulation...
warn: PowerState: Already in the requested power state, request ignored
Switched CPUS @ tick 13719052605952
switching cpus
**** REAL SIMULATION ****
info: Entering event queue @ 13719052606275.  Starting simulation...
13722385929285: Event_285: system.switch_cpus3 progress event, total committed:34432771, progress insts committed: 34432771, IPC: 03.43983
13722385929285: Event_284: system.switch_cpus2 progress event, total committed:5718006, progress insts committed: 5718006, IPC: 0.571229
13722385929285: Event_283: system.switch_cpus1 progress event, total committed:6379133, progress insts committed: 6379133, IPC: 0.637275
13722385929285: Event_282: system.switch_cpus0 progress event, total committed:6773505, progress insts committed: 6773505, IPC: 0.676673
13725719262618: Event_282: system.switch_cpus0 progress event, total committed:11909900, progress insts committed: 5136395, IPC: 0.513126
13725719262618: Event_283: system.switch_cpus1 progress event, total committed:11788540, progress insts committed: 5409407, IPC: 000.5404
13725719262618: Event_284: system.switch_cpus2 progress event, total committed:10214079, progress insts committed: 4496073, IPC: 0.449158
13725719262618: Event_285: system.switch_cpus3 progress event, total committed:71438768, progress insts committed: 37005997, IPC: 003.6969
13729052595951: Event_285: system.switch_cpus3 progress event, total committed:110120724, progress insts committed: 38681956, IPC: 03.86433
13729052595951: Event_284: system.switch_cpus2 progress event, total committed:14722287, progress insts committed: 4508208, IPC: 00.45037
13729052595951: Event_283: system.switch_cpus1 progress event, total committed:18240821, progress insts committed: 6452281, IPC: 0.644583
13729052595951: Event_282: system.switch_cpus0 progress event, total committed:17315185, progress insts committed: 5405285, IPC: 0.539988
13732385929284: Event_282: system.switch_cpus0 progress event, total committed:22754188, progress insts committed: 5439003, IPC: 0.543356
13732385929284: Event_283: system.switch_cpus1 progress event, total committed:24320686, progress insts committed: 6079865, IPC: 0.607379
13732385929284: Event_284: system.switch_cpus2 progress event, total committed:19185589, progress insts committed: 4463302, IPC: 0.445884
13732385929284: Event_285: system.switch_cpus3 progress event, total committed:151505614, progress insts committed: 41384890, IPC: 04.13435
13735719262617: Event_285: system.switch_cpus3 progress event, total committed:190594316, progress insts committed: 39088702, IPC: 03.90496
13735719262617: Event_284: system.switch_cpus2 progress event, total committed:23634450, progress insts committed: 4448861, IPC: 0.444441
13735719262617: Event_283: system.switch_cpus1 progress event, total committed:30378202, progress insts committed: 6057516, IPC: 0.605146
13735719262617: Event_282: system.switch_cpus0 progress event, total committed:28196154, progress insts committed: 5441966, IPC: 0.543652
13739052595950: Event_282: system.switch_cpus0 progress event, total committed:33759064, progress insts committed: 5562910, IPC: 0.555735
13739052595950: Event_283: system.switch_cpus1 progress event, total committed:36340051, progress insts committed: 5961849, IPC: 0.595589
13739052595950: Event_284: system.switch_cpus2 progress event, total committed:28136983, progress insts committed: 4502533, IPC: 0.449803
13739052595950: Event_285: system.switch_cpus3 progress event, total committed:227584023, progress insts committed: 36989707, IPC: 03.69527
13742385929283: Event_285: system.switch_cpus3 progress event, total committed:266764510, progress insts committed: 39180487, IPC: 03.91413
13742385929283: Event_284: system.switch_cpus2 progress event, total committed:32188190, progress insts committed: 4051207, IPC: 0.404716
13742385929283: Event_283: system.switch_cpus1 progress event, total committed:42129482, progress insts committed: 5789431, IPC: 0.578364
13742385929283: Event_282: system.switch_cpus0 progress event, total committed:38837121, progress insts committed: 5078057, IPC: 0.507298
13745719262616: Event_282: system.switch_cpus0 progress event, total committed:44662046, progress insts committed: 5824925, IPC: 00.58191
13745719262616: Event_283: system.switch_cpus1 progress event, total committed:47964707, progress insts committed: 5835225, IPC: 0.582939
13745719262616: Event_284: system.switch_cpus2 progress event, total committed:37083274, progress insts committed: 4895084, IPC: 0.489019
13745719262616: Event_285: system.switch_cpus3 progress event, total committed:302664112, progress insts committed: 35899602, IPC: 03.58637
warn: MOVNTDQ: Ignoring non-temporal hint, modeling as cacheable!
13749052595949: Event_285: system.switch_cpus3 progress event, total committed:342186880, progress insts committed: 39522768, IPC: 03.94832
13749052595949: Event_284: system.switch_cpus2 progress event, total committed:40961563, progress insts committed: 3878289, IPC: 0.387441
13749052595949: Event_283: system.switch_cpus1 progress event, total committed:55472001, progress insts committed: 7507294, IPC: 0.749979
13749052595949: Event_282: system.switch_cpus0 progress event, total committed:50520712, progress insts committed: 5858666, IPC: 0.585281
13752385929282: Event_282: system.switch_cpus0 progress event, total committed:55784534, progress insts committed: 5263822, IPC: 0.525856
13752385929282: Event_283: system.switch_cpus1 progress event, total committed:61448646, progress insts committed: 5976645, IPC: 0.597067
13752385929282: Event_284: system.switch_cpus2 progress event, total committed:41980858, progress insts committed: 1019295, IPC: 0.101828
13752385929282: Event_285: system.switch_cpus3 progress event, total committed:380712725, progress insts committed: 38525845, IPC: 03.84873
13755719262615: Event_285: system.switch_cpus3 progress event, total committed:416521424, progress insts committed: 35808699, IPC: 03.57729
13755719262615: Event_284: system.switch_cpus2 progress event, total committed:44997420, progress insts committed: 3016562, IPC: 0.301355
13755719262615: Event_283: system.switch_cpus1 progress event, total committed:67283158, progress insts committed: 5834512, IPC: 0.582868
13755719262615: Event_282: system.switch_cpus0 progress event, total committed:61501123, progress insts committed: 5716589, IPC: 0.571087
13759052595948: Event_282: system.switch_cpus0 progress event, total committed:66939573, progress insts committed: 5438450, IPC: 0.543301
13759052595948: Event_283: system.switch_cpus1 progress event, total committed:73181010, progress insts committed: 5897852, IPC: 0.589195
13759052595948: Event_284: system.switch_cpus2 progress event, total committed:48442810, progress insts committed: 3445390, IPC: 0.344194
13759052595948: Event_285: system.switch_cpus3 progress event, total committed:452552954, progress insts committed: 36031530, IPC: 03.59955
Exiting @ tick 13761417469671 because a thread reached the max instruction count
