Command line:
./runscript_pride.sh mix13 RFM10.BR2.4C 4 2017 --rh_defense --rh_mitigation=RFM --rh_rfm_per_trefi=10 --rh_rfm_blast_radius=2 --rh_rfm_maxacts_per_trefi=79
Global frequency set at 1000000000000 ticks per second
RFM details - rfm_act_threshold: 7, blast_radius: 2, delay_per_rfm: 175000 ps. sample_rate: 0.125000
RH Defense config: RFM, Bus Delay: 0, rfms_per_trefi: 10, rfm_act_threshold: 7, blast_radius: 2,rfm_delay_per_act: 45000 ps.
DRAM config: RowsPerBank: 65536, BanksPerRank: 32, RanksPerChannel: 1
warn: Sockets disabled, not accepting gdb connections
warn: CoherentXBar system.cpu0.mmucache.mmubus has no snooping ports attached!
warn: CoherentXBar system.cpu1.mmucache.mmubus has no snooping ports attached!
warn: CoherentXBar system.cpu2.mmucache.mmubus has no snooping ports attached!
warn: CoherentXBar system.cpu3.mmucache.mmubus has no snooping ports attached!
warn: Checkpoints for file descriptors currently do not work.
warn: Checkpoints for file descriptors currently do not work.
warn: Checkpoints for file descriptors currently do not work.
warn: Checkpoints for file descriptors currently do not work.
gem5 Simulator System.  http://gem5.org
gem5 is copyrighted software; use the --copyright option for details.

gem5 version 20.1.0.5
gem5 compiled Jul 12 2024 12:42:38
gem5 started Jul 22 2024 18:54:38
gem5 executing on a07dda8b130c, pid 90028
command line: /home/user/PrIDE/performance/gem5/build/X86/gem5.opt --outdir=/home/user/PrIDE/performance/gem5/stats/pride_multiprogram_16GBmem_250Mn.SPEC2017.C4/RFM10.BR2.4C/mix13 /home/user/PrIDE/performance/gem5/configs/example/se_rq_spec_config_multicore.py --redirects /lib64=/home/utils/gcc-6.2.0/lib64 --benchmark=mix13 --benchmark_stdout=/home/user/PrIDE/performance/gem5/stats/pride_multiprogram_16GBmem_250Mn.SPEC2017.C4/RFM10.BR2.4C/mix13/mix13.out --benchmark_stderr=/home/user/PrIDE/performance/gem5/stats/pride_multiprogram_16GBmem_250Mn.SPEC2017.C4/RFM10.BR2.4C/mix13/mix13.err --spec-version=2017 --rh_defense --rh_mitigation=RFM --rh_rfm_per_trefi=10 --rh_rfm_blast_radius=2 --rh_rfm_maxacts_per_trefi=79 --num-cpus=4 --mem-size=16GB --mem-type=DDR5_2400_32x4 --mem-ranks=1 --checkpoint-dir=/home/user/PrIDE/performance/gem5/cpts/multiprogram_16GBmem_25Bn.SPEC2017.C4/mix13-1-ref-x86 --checkpoint-restore=25000000000 --at-instruction --cpu-type DerivO3CPU --caches --l2cache --l1d_size=32kB --l1i_size=32kB --l2_size=256kB --l1d_assoc=8 --l1i_assoc=8 --l2_assoc=16 --maxinsts=250000000 --prog-interval=300Hz

info: Standard input is not a terminal, disabling listeners.
Benchmark- 0   lbm
Selected benchmark
--> lbm
CMD: ['/opt/spec2017/benchspec/CPU/519.lbm_r/run/run_base_refrate_gem5_se-m64.0000/lbm_r_base.gem5_se-m64', '3000', 'reference.dat', '0', '0', '/opt/spec2017/benchspec/CPU/519.lbm_r/run/run_base_refrate_gem5_se-m64.0000/100_100_130_ldc.of']
CWD: /opt/spec2017/benchspec/CPU/519.lbm_r/run/run_base_refrate_gem5_se-m64.0000/
Process stdout file: /home/user/PrIDE/performance/gem5/stats/pride_multiprogram_16GBmem_250Mn.SPEC2017.C4/RFM10.BR2.4C/mix13/mix13.out_0
Process stderr file: /home/user/PrIDE/performance/gem5/stats/pride_multiprogram_16GBmem_250Mn.SPEC2017.C4/RFM10.BR2.4C/mix13/mix13.err_0
Benchmark- 1   mcf
Selected benchmark
--> mcf
CMD: ['/opt/spec2017/benchspec/CPU/505.mcf_r/run/run_base_refrate_gem5_se-m64.0000/mcf_r_base.gem5_se-m64', '/opt/spec2017/benchspec/CPU/505.mcf_r/run/run_base_refrate_gem5_se-m64.0000/inp.in']
CWD: /opt/spec2017/benchspec/CPU/505.mcf_r/run/run_base_refrate_gem5_se-m64.0000/
Process stdout file: /home/user/PrIDE/performance/gem5/stats/pride_multiprogram_16GBmem_250Mn.SPEC2017.C4/RFM10.BR2.4C/mix13/mix13.out_1
Process stderr file: /home/user/PrIDE/performance/gem5/stats/pride_multiprogram_16GBmem_250Mn.SPEC2017.C4/RFM10.BR2.4C/mix13/mix13.err_1
Benchmark- 2   wrf
Selected benchmark
--> wrf
CMD: ['/opt/spec2017/benchspec/CPU/521.wrf_r/run/run_base_refrate_gem5_se-m64.0000/wrf_r_base.gem5_se-m64']
CWD: /opt/spec2017/benchspec/CPU/521.wrf_r/run/run_base_refrate_gem5_se-m64.0000/
Process stdout file: /home/user/PrIDE/performance/gem5/stats/pride_multiprogram_16GBmem_250Mn.SPEC2017.C4/RFM10.BR2.4C/mix13/mix13.out_2
Process stderr file: /home/user/PrIDE/performance/gem5/stats/pride_multiprogram_16GBmem_250Mn.SPEC2017.C4/RFM10.BR2.4C/mix13/mix13.err_2
Benchmark- 3   exchange2
Selected benchmark
--> exchange2
CMD: ['/opt/spec2017/benchspec/CPU/548.exchange2_r/run/run_base_refrate_gem5_se-m64.0000/exchange2_r_base.gem5_se-m64', '6']
CWD: /opt/spec2017/benchspec/CPU/548.exchange2_r/run/run_base_refrate_gem5_se-m64.0000/
Process stdout file: /home/user/PrIDE/performance/gem5/stats/pride_multiprogram_16GBmem_250Mn.SPEC2017.C4/RFM10.BR2.4C/mix13/mix13.out_3
Process stderr file: /home/user/PrIDE/performance/gem5/stats/pride_multiprogram_16GBmem_250Mn.SPEC2017.C4/RFM10.BR2.4C/mix13/mix13.err_3
Workload-0: 
['/opt/spec2017/benchspec/CPU/519.lbm_r/run/run_base_refrate_gem5_se-m64.0000/lbm_r_base.gem5_se-m64', '3000', 'reference.dat', '0', '0', '/opt/spec2017/benchspec/CPU/519.lbm_r/run/run_base_refrate_gem5_se-m64.0000/100_100_130_ldc.of']
Workload-1: 
['/opt/spec2017/benchspec/CPU/505.mcf_r/run/run_base_refrate_gem5_se-m64.0000/mcf_r_base.gem5_se-m64', '/opt/spec2017/benchspec/CPU/505.mcf_r/run/run_base_refrate_gem5_se-m64.0000/inp.in']
Workload-2: 
['/opt/spec2017/benchspec/CPU/521.wrf_r/run/run_base_refrate_gem5_se-m64.0000/wrf_r_base.gem5_se-m64']
Workload-3: 
['/opt/spec2017/benchspec/CPU/548.exchange2_r/run/run_base_refrate_gem5_se-m64.0000/exchange2_r_base.gem5_se-m64', '6']
defense_enable:  True  detector:  MG  mitigation:  RFM  threshold:  800
mg_entries:  1700
rfm_maxacts_per_trefi:  79 rfm_per_trefi:  10 rfm_blast_radius:  2
Switch at curTick count:10000
warn: membus.master is deprecated. `master` is now called `mem_side_ports`
warn: No dot file generated. Please install pydot to generate the dot file and pdf.
info: Entering event queue @ 13719052538010.  Starting simulation...
info: Entering event queue @ 13719052548010.  Starting simulation...
warn: PowerState: Already in the requested power state, request ignored
Switched CPUS @ tick 13719052548010
switching cpus
**** REAL SIMULATION ****
info: Entering event queue @ 13719052548666.  Starting simulation...
13722385871343: Event_285: system.switch_cpus3 progress event, total committed:34370259, progress insts committed: 34370259, IPC: 03.43359
13722385871343: Event_284: system.switch_cpus2 progress event, total committed:5738332, progress insts committed: 5738332, IPC: 0.573259
13722385871343: Event_283: system.switch_cpus1 progress event, total committed:6434309, progress insts committed: 6434309, IPC: 0.642787
13722385871343: Event_282: system.switch_cpus0 progress event, total committed:6773956, progress insts committed: 6773956, IPC: 0.676718
13725719204676: Event_282: system.switch_cpus0 progress event, total committed:11909844, progress insts committed: 5135888, IPC: 0.513075
13725719204676: Event_283: system.switch_cpus1 progress event, total committed:11821922, progress insts committed: 5387613, IPC: 0.538223
13725719204676: Event_284: system.switch_cpus2 progress event, total committed:10234258, progress insts committed: 4495926, IPC: 0.449143
13725719204676: Event_285: system.switch_cpus3 progress event, total committed:71394835, progress insts committed: 37024576, IPC: 03.69876
13729052538009: Event_285: system.switch_cpus3 progress event, total committed:110087515, progress insts committed: 38692680, IPC: 003.8654
13729052538009: Event_284: system.switch_cpus2 progress event, total committed:14712832, progress insts committed: 4478574, IPC: 00.44741
13729052538009: Event_283: system.switch_cpus1 progress event, total committed:18211916, progress insts committed: 6389994, IPC: 00.63836
13729052538009: Event_282: system.switch_cpus0 progress event, total committed:17304722, progress insts committed: 5394878, IPC: 0.538948
13732385871342: Event_282: system.switch_cpus0 progress event, total committed:22776006, progress insts committed: 5471284, IPC: 0.546581
13732385871342: Event_283: system.switch_cpus1 progress event, total committed:24355888, progress insts committed: 6143972, IPC: 0.613783
13732385871342: Event_284: system.switch_cpus2 progress event, total committed:19191283, progress insts committed: 4478451, IPC: 0.447397
13732385871342: Event_285: system.switch_cpus3 progress event, total committed:151475121, progress insts committed: 41387606, IPC: 04.13462
13735719204675: Event_285: system.switch_cpus3 progress event, total committed:190567998, progress insts committed: 39092877, IPC: 03.90538
13735719204675: Event_284: system.switch_cpus2 progress event, total committed:23637461, progress insts committed: 4446178, IPC: 0.444173
13735719204675: Event_283: system.switch_cpus1 progress event, total committed:30377152, progress insts committed: 6021264, IPC: 0.601524
13735719204675: Event_282: system.switch_cpus0 progress event, total committed:28205978, progress insts committed: 5429972, IPC: 0.542454
13739052538008: Event_282: system.switch_cpus0 progress event, total committed:33733916, progress insts committed: 5527938, IPC: 0.552241
13739052538008: Event_283: system.switch_cpus1 progress event, total committed:36337554, progress insts committed: 5960402, IPC: 0.595444
13739052538008: Event_284: system.switch_cpus2 progress event, total committed:28097397, progress insts committed: 4459936, IPC: 0.445548
13739052538008: Event_285: system.switch_cpus3 progress event, total committed:227544647, progress insts committed: 36976649, IPC: 03.69397
13742385871341: Event_285: system.switch_cpus3 progress event, total committed:266731037, progress insts committed: 39186390, IPC: 03.91472
13742385871341: Event_284: system.switch_cpus2 progress event, total committed:32126308, progress insts committed: 4028911, IPC: 0.402488
13742385871341: Event_283: system.switch_cpus1 progress event, total committed:42127432, progress insts committed: 5789878, IPC: 0.578409
13742385871341: Event_282: system.switch_cpus0 progress event, total committed:38820769, progress insts committed: 5086853, IPC: 0.508177
13745719204674: Event_282: system.switch_cpus0 progress event, total committed:44587225, progress insts committed: 5766456, IPC: 0.576069
13745719204674: Event_283: system.switch_cpus1 progress event, total committed:47952791, progress insts committed: 5825359, IPC: 0.581953
13745719204674: Event_284: system.switch_cpus2 progress event, total committed:37019549, progress insts committed: 4893241, IPC: 0.488835
13745719204674: Event_285: system.switch_cpus3 progress event, total committed:302621919, progress insts committed: 35890882, IPC: 003.5855
warn: MOVNTDQ: Ignoring non-temporal hint, modeling as cacheable!
13749052538007: Event_285: system.switch_cpus3 progress event, total committed:342128998, progress insts committed: 39507079, IPC: 03.94676
13749052538007: Event_284: system.switch_cpus2 progress event, total committed:40946579, progress insts committed: 3927030, IPC: 00.39231
13749052538007: Event_283: system.switch_cpus1 progress event, total committed:55260146, progress insts committed: 7307355, IPC: 0.730005
13749052538007: Event_282: system.switch_cpus0 progress event, total committed:50448501, progress insts committed: 5861276, IPC: 0.585541
13752385871340: Event_282: system.switch_cpus0 progress event, total committed:55744363, progress insts committed: 5295862, IPC: 0.529057
13752385871340: Event_283: system.switch_cpus1 progress event, total committed:61443227, progress insts committed: 6183081, IPC: 00.61769
13752385871340: Event_284: system.switch_cpus2 progress event, total committed:41969410, progress insts committed: 1022831, IPC: 0.102181
13752385871340: Event_285: system.switch_cpus3 progress event, total committed:380664980, progress insts committed: 38535982, IPC: 03.84974
13755719204673: Event_285: system.switch_cpus3 progress event, total committed:416476950, progress insts committed: 35811970, IPC: 03.57762
13755719204673: Event_284: system.switch_cpus2 progress event, total committed:44938608, progress insts committed: 2969198, IPC: 0.296623
13755719204673: Event_283: system.switch_cpus1 progress event, total committed:67277271, progress insts committed: 5834044, IPC: 0.582821
13755719204673: Event_282: system.switch_cpus0 progress event, total committed:61440778, progress insts committed: 5696415, IPC: 0.569072
13759052538006: Event_282: system.switch_cpus0 progress event, total committed:66906784, progress insts committed: 5466006, IPC: 0.546054
13759052538006: Event_283: system.switch_cpus1 progress event, total committed:73178184, progress insts committed: 5900913, IPC: 0.589501
13759052538006: Event_284: system.switch_cpus2 progress event, total committed:48404734, progress insts committed: 3466126, IPC: 0.346266
13759052538006: Event_285: system.switch_cpus3 progress event, total committed:452505165, progress insts committed: 36028215, IPC: 03.59922
Exiting @ tick 13761421433037 because a thread reached the max instruction count
