
---------- Begin Simulation Statistics ----------
final_tick                               18769042239930                       # Number of ticks from beginning of simulation (restored from checkpoints and never reset)
host_inst_rate                                  64330                       # Simulator instruction rate (inst/s)
host_mem_usage                               17865364                       # Number of bytes of host memory used
host_op_rate                                   114969                       # Simulator op (including micro ops) rate (op/s)
host_seconds                                 15330.13                       # Real time elapsed on the host
host_tick_rate                               35869225                       # Simulator tick rate (ticks/s)
sim_freq                                 1000000000000                       # Frequency of simulated ticks
sim_insts                                   986193583                       # Number of instructions simulated
sim_ops                                    1762486622                       # Number of ops (including micro ops) simulated
sim_seconds                                  0.549880                       # Number of seconds simulated
sim_ticks                                549879998904                       # Number of ticks simulated
system.cpu0.Branches                                3                       # Number of branches fetched
system.cpu0.committedInsts                         16                       # Number of instructions committed
system.cpu0.committedOps                           27                       # Number of ops (including micro ops) committed
system.cpu0.idle_fraction                           0                       # Percentage of idle cycles
system.cpu0.l2bus.snoop_filter.hit_multi_requests           17                       # Number of requests hitting in the snoop filter with multiple (>1) holders of the requested data.
system.cpu0.l2bus.snoop_filter.hit_multi_snoops            4                       # Number of snoops hitting in the snoop filter with multiple (>1) holders of the requested data.
system.cpu0.l2bus.snoop_filter.hit_single_requests     12131192                       # Number of requests hitting in the snoop filter with a single holder of the requested data.
system.cpu0.l2bus.snoop_filter.hit_single_snoops      6995668                       # Number of snoops hitting in the snoop filter with a single holder of the requested data.
system.cpu0.l2bus.snoop_filter.tot_requests     24254113                       # Total number of requests made to the snoop filter.
system.cpu0.l2bus.snoop_filter.tot_snoops      6995672                       # Total number of snoops made to the snoop filter.
system.cpu0.mmucache.mmubus.snoop_filter.hit_multi_requests            0                       # Number of requests hitting in the snoop filter with multiple (>1) holders of the requested data.
system.cpu0.mmucache.mmubus.snoop_filter.hit_multi_snoops            0                       # Number of snoops hitting in the snoop filter with multiple (>1) holders of the requested data.
system.cpu0.mmucache.mmubus.snoop_filter.hit_single_requests            0                       # Number of requests hitting in the snoop filter with a single holder of the requested data.
system.cpu0.mmucache.mmubus.snoop_filter.hit_single_snoops            0                       # Number of snoops hitting in the snoop filter with a single holder of the requested data.
system.cpu0.mmucache.mmubus.snoop_filter.tot_requests            0                       # Total number of requests made to the snoop filter.
system.cpu0.mmucache.mmubus.snoop_filter.tot_snoops            0                       # Total number of snoops made to the snoop filter.
system.cpu0.not_idle_fraction                       1                       # Percentage of non-idle cycles
system.cpu0.numCycles                              32                       # number of cpu cycles simulated
system.cpu0.numWorkItemsCompleted                   0                       # number of work items this cpu completed
system.cpu0.numWorkItemsStarted                     0                       # number of work items this cpu started
system.cpu0.num_busy_cycles                        32                       # Number of busy cycles
system.cpu0.num_cc_register_reads                  41                       # number of times the CC registers were read
system.cpu0.num_cc_register_writes                 10                       # number of times the CC registers were written
system.cpu0.num_conditional_control_insts            3                       # number of instructions that are conditional controls
system.cpu0.num_fp_alu_accesses                     9                       # Number of float alu accesses
system.cpu0.num_fp_insts                            9                       # number of float instructions
system.cpu0.num_fp_register_reads                  16                       # number of times the floating registers were read
system.cpu0.num_fp_register_writes                  7                       # number of times the floating registers were written
system.cpu0.num_func_calls                          0                       # number of times a function call or return occured
system.cpu0.num_idle_cycles                         0                       # Number of idle cycles
system.cpu0.num_int_alu_accesses                   19                       # Number of integer alu accesses
system.cpu0.num_int_insts                          19                       # number of integer instructions
system.cpu0.num_int_register_reads                 34                       # number of times the integer registers were read
system.cpu0.num_int_register_writes                15                       # number of times the integer registers were written
system.cpu0.num_load_insts                          2                       # Number of load instructions
system.cpu0.num_mem_refs                            2                       # number of memory refs
system.cpu0.num_store_insts                         0                       # Number of store instructions
system.cpu0.num_vec_alu_accesses                    0                       # Number of vector alu accesses
system.cpu0.num_vec_insts                           0                       # number of vector instructions
system.cpu0.num_vec_register_reads                  0                       # number of times the vector registers were read
system.cpu0.num_vec_register_writes                 0                       # number of times the vector registers were written
system.cpu0.op_class::No_OpClass                    0      0.00%      0.00% # Class of executed instruction
system.cpu0.op_class::IntAlu                       17     62.96%     62.96% # Class of executed instruction
system.cpu0.op_class::IntMult                       0      0.00%     62.96% # Class of executed instruction
system.cpu0.op_class::IntDiv                        0      0.00%     62.96% # Class of executed instruction
system.cpu0.op_class::FloatAdd                      2      7.41%     70.37% # Class of executed instruction
system.cpu0.op_class::FloatCmp                      0      0.00%     70.37% # Class of executed instruction
system.cpu0.op_class::FloatCvt                      0      0.00%     70.37% # Class of executed instruction
system.cpu0.op_class::FloatMult                     0      0.00%     70.37% # Class of executed instruction
system.cpu0.op_class::FloatMultAcc                  0      0.00%     70.37% # Class of executed instruction
system.cpu0.op_class::FloatDiv                      0      0.00%     70.37% # Class of executed instruction
system.cpu0.op_class::FloatMisc                     0      0.00%     70.37% # Class of executed instruction
system.cpu0.op_class::FloatSqrt                     0      0.00%     70.37% # Class of executed instruction
system.cpu0.op_class::SimdAdd                       0      0.00%     70.37% # Class of executed instruction
system.cpu0.op_class::SimdAddAcc                    0      0.00%     70.37% # Class of executed instruction
system.cpu0.op_class::SimdAlu                       0      0.00%     70.37% # Class of executed instruction
system.cpu0.op_class::SimdCmp                       0      0.00%     70.37% # Class of executed instruction
system.cpu0.op_class::SimdCvt                       0      0.00%     70.37% # Class of executed instruction
system.cpu0.op_class::SimdMisc                      0      0.00%     70.37% # Class of executed instruction
system.cpu0.op_class::SimdMult                      0      0.00%     70.37% # Class of executed instruction
system.cpu0.op_class::SimdMultAcc                   0      0.00%     70.37% # Class of executed instruction
system.cpu0.op_class::SimdShift                     0      0.00%     70.37% # Class of executed instruction
system.cpu0.op_class::SimdShiftAcc                  0      0.00%     70.37% # Class of executed instruction
system.cpu0.op_class::SimdDiv                       0      0.00%     70.37% # Class of executed instruction
system.cpu0.op_class::SimdSqrt                      0      0.00%     70.37% # Class of executed instruction
system.cpu0.op_class::SimdFloatAdd                  2      7.41%     77.78% # Class of executed instruction
system.cpu0.op_class::SimdFloatAlu                  0      0.00%     77.78% # Class of executed instruction
system.cpu0.op_class::SimdFloatCmp                  1      3.70%     81.48% # Class of executed instruction
system.cpu0.op_class::SimdFloatCvt                  2      7.41%     88.89% # Class of executed instruction
system.cpu0.op_class::SimdFloatDiv                  0      0.00%     88.89% # Class of executed instruction
system.cpu0.op_class::SimdFloatMisc                 0      0.00%     88.89% # Class of executed instruction
system.cpu0.op_class::SimdFloatMult                 1      3.70%     92.59% # Class of executed instruction
system.cpu0.op_class::SimdFloatMultAcc              0      0.00%     92.59% # Class of executed instruction
system.cpu0.op_class::SimdFloatSqrt                 0      0.00%     92.59% # Class of executed instruction
system.cpu0.op_class::SimdReduceAdd                 0      0.00%     92.59% # Class of executed instruction
system.cpu0.op_class::SimdReduceAlu                 0      0.00%     92.59% # Class of executed instruction
system.cpu0.op_class::SimdReduceCmp                 0      0.00%     92.59% # Class of executed instruction
system.cpu0.op_class::SimdFloatReduceAdd            0      0.00%     92.59% # Class of executed instruction
system.cpu0.op_class::SimdFloatReduceCmp            0      0.00%     92.59% # Class of executed instruction
system.cpu0.op_class::SimdAes                       0      0.00%     92.59% # Class of executed instruction
system.cpu0.op_class::SimdAesMix                    0      0.00%     92.59% # Class of executed instruction
system.cpu0.op_class::SimdSha1Hash                  0      0.00%     92.59% # Class of executed instruction
system.cpu0.op_class::SimdSha1Hash2                 0      0.00%     92.59% # Class of executed instruction
system.cpu0.op_class::SimdSha256Hash                0      0.00%     92.59% # Class of executed instruction
system.cpu0.op_class::SimdSha256Hash2               0      0.00%     92.59% # Class of executed instruction
system.cpu0.op_class::SimdShaSigma2                 0      0.00%     92.59% # Class of executed instruction
system.cpu0.op_class::SimdShaSigma3                 0      0.00%     92.59% # Class of executed instruction
system.cpu0.op_class::SimdPredAlu                   0      0.00%     92.59% # Class of executed instruction
system.cpu0.op_class::MemRead                       1      3.70%     96.30% # Class of executed instruction
system.cpu0.op_class::MemWrite                      0      0.00%     96.30% # Class of executed instruction
system.cpu0.op_class::FloatMemRead                  1      3.70%    100.00% # Class of executed instruction
system.cpu0.op_class::FloatMemWrite                 0      0.00%    100.00% # Class of executed instruction
system.cpu0.op_class::IprAccess                     0      0.00%    100.00% # Class of executed instruction
system.cpu0.op_class::InstPrefetch                  0      0.00%    100.00% # Class of executed instruction
system.cpu0.op_class::total                        27                       # Class of executed instruction
system.cpu0.workload.numSyscalls                    0                       # Number of system calls
system.cpu1.Branches                                1                       # Number of branches fetched
system.cpu1.committedInsts                         16                       # Number of instructions committed
system.cpu1.committedOps                           23                       # Number of ops (including micro ops) committed
system.cpu1.idle_fraction                           0                       # Percentage of idle cycles
system.cpu1.l2bus.snoop_filter.hit_multi_requests           12                       # Number of requests hitting in the snoop filter with multiple (>1) holders of the requested data.
system.cpu1.l2bus.snoop_filter.hit_multi_snoops            0                       # Number of snoops hitting in the snoop filter with multiple (>1) holders of the requested data.
system.cpu1.l2bus.snoop_filter.hit_single_requests     12223941                       # Number of requests hitting in the snoop filter with a single holder of the requested data.
system.cpu1.l2bus.snoop_filter.hit_single_snoops         3863                       # Number of snoops hitting in the snoop filter with a single holder of the requested data.
system.cpu1.l2bus.snoop_filter.tot_requests     24445604                       # Total number of requests made to the snoop filter.
system.cpu1.l2bus.snoop_filter.tot_snoops         3863                       # Total number of snoops made to the snoop filter.
system.cpu1.mmucache.mmubus.snoop_filter.hit_multi_requests            0                       # Number of requests hitting in the snoop filter with multiple (>1) holders of the requested data.
system.cpu1.mmucache.mmubus.snoop_filter.hit_multi_snoops            0                       # Number of snoops hitting in the snoop filter with multiple (>1) holders of the requested data.
system.cpu1.mmucache.mmubus.snoop_filter.hit_single_requests            0                       # Number of requests hitting in the snoop filter with a single holder of the requested data.
system.cpu1.mmucache.mmubus.snoop_filter.hit_single_snoops            0                       # Number of snoops hitting in the snoop filter with a single holder of the requested data.
system.cpu1.mmucache.mmubus.snoop_filter.tot_requests            0                       # Total number of requests made to the snoop filter.
system.cpu1.mmucache.mmubus.snoop_filter.tot_snoops            0                       # Total number of snoops made to the snoop filter.
system.cpu1.not_idle_fraction                       1                       # Percentage of non-idle cycles
system.cpu1.numCycles                              31                       # number of cpu cycles simulated
system.cpu1.numWorkItemsCompleted                   0                       # number of work items this cpu completed
system.cpu1.numWorkItemsStarted                     0                       # number of work items this cpu started
system.cpu1.num_busy_cycles                        31                       # Number of busy cycles
system.cpu1.num_cc_register_reads                   7                       # number of times the CC registers were read
system.cpu1.num_cc_register_writes                  2                       # number of times the CC registers were written
system.cpu1.num_conditional_control_insts            1                       # number of instructions that are conditional controls
system.cpu1.num_fp_alu_accesses                    20                       # Number of float alu accesses
system.cpu1.num_fp_insts                           20                       # number of float instructions
system.cpu1.num_fp_register_reads                  43                       # number of times the floating registers were read
system.cpu1.num_fp_register_writes                 19                       # number of times the floating registers were written
system.cpu1.num_func_calls                          0                       # number of times a function call or return occured
system.cpu1.num_idle_cycles                         0                       # Number of idle cycles
system.cpu1.num_int_alu_accesses                    5                       # Number of integer alu accesses
system.cpu1.num_int_insts                           5                       # number of integer instructions
system.cpu1.num_int_register_reads                 10                       # number of times the integer registers were read
system.cpu1.num_int_register_writes                 2                       # number of times the integer registers were written
system.cpu1.num_load_insts                          2                       # Number of load instructions
system.cpu1.num_mem_refs                            2                       # number of memory refs
system.cpu1.num_store_insts                         0                       # Number of store instructions
system.cpu1.num_vec_alu_accesses                    0                       # Number of vector alu accesses
system.cpu1.num_vec_insts                           0                       # number of vector instructions
system.cpu1.num_vec_register_reads                  0                       # number of times the vector registers were read
system.cpu1.num_vec_register_writes                 0                       # number of times the vector registers were written
system.cpu1.op_class::No_OpClass                    0      0.00%      0.00% # Class of executed instruction
system.cpu1.op_class::IntAlu                        7     30.43%     30.43% # Class of executed instruction
system.cpu1.op_class::IntMult                       0      0.00%     30.43% # Class of executed instruction
system.cpu1.op_class::IntDiv                        0      0.00%     30.43% # Class of executed instruction
system.cpu1.op_class::FloatAdd                      2      8.70%     39.13% # Class of executed instruction
system.cpu1.op_class::FloatCmp                      0      0.00%     39.13% # Class of executed instruction
system.cpu1.op_class::FloatCvt                      0      0.00%     39.13% # Class of executed instruction
system.cpu1.op_class::FloatMult                     0      0.00%     39.13% # Class of executed instruction
system.cpu1.op_class::FloatMultAcc                  0      0.00%     39.13% # Class of executed instruction
system.cpu1.op_class::FloatDiv                      0      0.00%     39.13% # Class of executed instruction
system.cpu1.op_class::FloatMisc                     0      0.00%     39.13% # Class of executed instruction
system.cpu1.op_class::FloatSqrt                     0      0.00%     39.13% # Class of executed instruction
system.cpu1.op_class::SimdAdd                       0      0.00%     39.13% # Class of executed instruction
system.cpu1.op_class::SimdAddAcc                    0      0.00%     39.13% # Class of executed instruction
system.cpu1.op_class::SimdAlu                       0      0.00%     39.13% # Class of executed instruction
system.cpu1.op_class::SimdCmp                       0      0.00%     39.13% # Class of executed instruction
system.cpu1.op_class::SimdCvt                       0      0.00%     39.13% # Class of executed instruction
system.cpu1.op_class::SimdMisc                      0      0.00%     39.13% # Class of executed instruction
system.cpu1.op_class::SimdMult                      0      0.00%     39.13% # Class of executed instruction
system.cpu1.op_class::SimdMultAcc                   0      0.00%     39.13% # Class of executed instruction
system.cpu1.op_class::SimdShift                     0      0.00%     39.13% # Class of executed instruction
system.cpu1.op_class::SimdShiftAcc                  0      0.00%     39.13% # Class of executed instruction
system.cpu1.op_class::SimdDiv                       0      0.00%     39.13% # Class of executed instruction
system.cpu1.op_class::SimdSqrt                      0      0.00%     39.13% # Class of executed instruction
system.cpu1.op_class::SimdFloatAdd                  5     21.74%     60.87% # Class of executed instruction
system.cpu1.op_class::SimdFloatAlu                  0      0.00%     60.87% # Class of executed instruction
system.cpu1.op_class::SimdFloatCmp                  1      4.35%     65.22% # Class of executed instruction
system.cpu1.op_class::SimdFloatCvt                  1      4.35%     69.57% # Class of executed instruction
system.cpu1.op_class::SimdFloatDiv                  0      0.00%     69.57% # Class of executed instruction
system.cpu1.op_class::SimdFloatMisc                 0      0.00%     69.57% # Class of executed instruction
system.cpu1.op_class::SimdFloatMult                 5     21.74%     91.30% # Class of executed instruction
system.cpu1.op_class::SimdFloatMultAcc              0      0.00%     91.30% # Class of executed instruction
system.cpu1.op_class::SimdFloatSqrt                 0      0.00%     91.30% # Class of executed instruction
system.cpu1.op_class::SimdReduceAdd                 0      0.00%     91.30% # Class of executed instruction
system.cpu1.op_class::SimdReduceAlu                 0      0.00%     91.30% # Class of executed instruction
system.cpu1.op_class::SimdReduceCmp                 0      0.00%     91.30% # Class of executed instruction
system.cpu1.op_class::SimdFloatReduceAdd            0      0.00%     91.30% # Class of executed instruction
system.cpu1.op_class::SimdFloatReduceCmp            0      0.00%     91.30% # Class of executed instruction
system.cpu1.op_class::SimdAes                       0      0.00%     91.30% # Class of executed instruction
system.cpu1.op_class::SimdAesMix                    0      0.00%     91.30% # Class of executed instruction
system.cpu1.op_class::SimdSha1Hash                  0      0.00%     91.30% # Class of executed instruction
system.cpu1.op_class::SimdSha1Hash2                 0      0.00%     91.30% # Class of executed instruction
system.cpu1.op_class::SimdSha256Hash                0      0.00%     91.30% # Class of executed instruction
system.cpu1.op_class::SimdSha256Hash2               0      0.00%     91.30% # Class of executed instruction
system.cpu1.op_class::SimdShaSigma2                 0      0.00%     91.30% # Class of executed instruction
system.cpu1.op_class::SimdShaSigma3                 0      0.00%     91.30% # Class of executed instruction
system.cpu1.op_class::SimdPredAlu                   0      0.00%     91.30% # Class of executed instruction
system.cpu1.op_class::MemRead                       0      0.00%     91.30% # Class of executed instruction
system.cpu1.op_class::MemWrite                      0      0.00%     91.30% # Class of executed instruction
system.cpu1.op_class::FloatMemRead                  2      8.70%    100.00% # Class of executed instruction
system.cpu1.op_class::FloatMemWrite                 0      0.00%    100.00% # Class of executed instruction
system.cpu1.op_class::IprAccess                     0      0.00%    100.00% # Class of executed instruction
system.cpu1.op_class::InstPrefetch                  0      0.00%    100.00% # Class of executed instruction
system.cpu1.op_class::total                        23                       # Class of executed instruction
system.cpu1.workload.numSyscalls                    0                       # Number of system calls
system.cpu2.Branches                                1                       # Number of branches fetched
system.cpu2.committedInsts                         16                       # Number of instructions committed
system.cpu2.committedOps                           23                       # Number of ops (including micro ops) committed
system.cpu2.idle_fraction                           0                       # Percentage of idle cycles
system.cpu2.l2bus.snoop_filter.hit_multi_requests           13                       # Number of requests hitting in the snoop filter with multiple (>1) holders of the requested data.
system.cpu2.l2bus.snoop_filter.hit_multi_snoops            2                       # Number of snoops hitting in the snoop filter with multiple (>1) holders of the requested data.
system.cpu2.l2bus.snoop_filter.hit_single_requests     12104138                       # Number of requests hitting in the snoop filter with a single holder of the requested data.
system.cpu2.l2bus.snoop_filter.hit_single_snoops      6996940                       # Number of snoops hitting in the snoop filter with a single holder of the requested data.
system.cpu2.l2bus.snoop_filter.tot_requests     24201375                       # Total number of requests made to the snoop filter.
system.cpu2.l2bus.snoop_filter.tot_snoops      6996942                       # Total number of snoops made to the snoop filter.
system.cpu2.mmucache.mmubus.snoop_filter.hit_multi_requests            0                       # Number of requests hitting in the snoop filter with multiple (>1) holders of the requested data.
system.cpu2.mmucache.mmubus.snoop_filter.hit_multi_snoops            0                       # Number of snoops hitting in the snoop filter with multiple (>1) holders of the requested data.
system.cpu2.mmucache.mmubus.snoop_filter.hit_single_requests            0                       # Number of requests hitting in the snoop filter with a single holder of the requested data.
system.cpu2.mmucache.mmubus.snoop_filter.hit_single_snoops            0                       # Number of snoops hitting in the snoop filter with a single holder of the requested data.
system.cpu2.mmucache.mmubus.snoop_filter.tot_requests            0                       # Total number of requests made to the snoop filter.
system.cpu2.mmucache.mmubus.snoop_filter.tot_snoops            0                       # Total number of snoops made to the snoop filter.
system.cpu2.not_idle_fraction                       1                       # Percentage of non-idle cycles
system.cpu2.numCycles                              31                       # number of cpu cycles simulated
system.cpu2.numWorkItemsCompleted                   0                       # number of work items this cpu completed
system.cpu2.numWorkItemsStarted                     0                       # number of work items this cpu started
system.cpu2.num_busy_cycles                        31                       # Number of busy cycles
system.cpu2.num_cc_register_reads                   7                       # number of times the CC registers were read
system.cpu2.num_cc_register_writes                  2                       # number of times the CC registers were written
system.cpu2.num_conditional_control_insts            1                       # number of instructions that are conditional controls
system.cpu2.num_fp_alu_accesses                    20                       # Number of float alu accesses
system.cpu2.num_fp_insts                           20                       # number of float instructions
system.cpu2.num_fp_register_reads                  43                       # number of times the floating registers were read
system.cpu2.num_fp_register_writes                 19                       # number of times the floating registers were written
system.cpu2.num_func_calls                          0                       # number of times a function call or return occured
system.cpu2.num_idle_cycles                         0                       # Number of idle cycles
system.cpu2.num_int_alu_accesses                    5                       # Number of integer alu accesses
system.cpu2.num_int_insts                           5                       # number of integer instructions
system.cpu2.num_int_register_reads                 10                       # number of times the integer registers were read
system.cpu2.num_int_register_writes                 2                       # number of times the integer registers were written
system.cpu2.num_load_insts                          2                       # Number of load instructions
system.cpu2.num_mem_refs                            2                       # number of memory refs
system.cpu2.num_store_insts                         0                       # Number of store instructions
system.cpu2.num_vec_alu_accesses                    0                       # Number of vector alu accesses
system.cpu2.num_vec_insts                           0                       # number of vector instructions
system.cpu2.num_vec_register_reads                  0                       # number of times the vector registers were read
system.cpu2.num_vec_register_writes                 0                       # number of times the vector registers were written
system.cpu2.op_class::No_OpClass                    0      0.00%      0.00% # Class of executed instruction
system.cpu2.op_class::IntAlu                        7     30.43%     30.43% # Class of executed instruction
system.cpu2.op_class::IntMult                       0      0.00%     30.43% # Class of executed instruction
system.cpu2.op_class::IntDiv                        0      0.00%     30.43% # Class of executed instruction
system.cpu2.op_class::FloatAdd                      2      8.70%     39.13% # Class of executed instruction
system.cpu2.op_class::FloatCmp                      0      0.00%     39.13% # Class of executed instruction
system.cpu2.op_class::FloatCvt                      0      0.00%     39.13% # Class of executed instruction
system.cpu2.op_class::FloatMult                     0      0.00%     39.13% # Class of executed instruction
system.cpu2.op_class::FloatMultAcc                  0      0.00%     39.13% # Class of executed instruction
system.cpu2.op_class::FloatDiv                      0      0.00%     39.13% # Class of executed instruction
system.cpu2.op_class::FloatMisc                     0      0.00%     39.13% # Class of executed instruction
system.cpu2.op_class::FloatSqrt                     0      0.00%     39.13% # Class of executed instruction
system.cpu2.op_class::SimdAdd                       0      0.00%     39.13% # Class of executed instruction
system.cpu2.op_class::SimdAddAcc                    0      0.00%     39.13% # Class of executed instruction
system.cpu2.op_class::SimdAlu                       0      0.00%     39.13% # Class of executed instruction
system.cpu2.op_class::SimdCmp                       0      0.00%     39.13% # Class of executed instruction
system.cpu2.op_class::SimdCvt                       0      0.00%     39.13% # Class of executed instruction
system.cpu2.op_class::SimdMisc                      0      0.00%     39.13% # Class of executed instruction
system.cpu2.op_class::SimdMult                      0      0.00%     39.13% # Class of executed instruction
system.cpu2.op_class::SimdMultAcc                   0      0.00%     39.13% # Class of executed instruction
system.cpu2.op_class::SimdShift                     0      0.00%     39.13% # Class of executed instruction
system.cpu2.op_class::SimdShiftAcc                  0      0.00%     39.13% # Class of executed instruction
system.cpu2.op_class::SimdDiv                       0      0.00%     39.13% # Class of executed instruction
system.cpu2.op_class::SimdSqrt                      0      0.00%     39.13% # Class of executed instruction
system.cpu2.op_class::SimdFloatAdd                  5     21.74%     60.87% # Class of executed instruction
system.cpu2.op_class::SimdFloatAlu                  0      0.00%     60.87% # Class of executed instruction
system.cpu2.op_class::SimdFloatCmp                  1      4.35%     65.22% # Class of executed instruction
system.cpu2.op_class::SimdFloatCvt                  1      4.35%     69.57% # Class of executed instruction
system.cpu2.op_class::SimdFloatDiv                  0      0.00%     69.57% # Class of executed instruction
system.cpu2.op_class::SimdFloatMisc                 0      0.00%     69.57% # Class of executed instruction
system.cpu2.op_class::SimdFloatMult                 5     21.74%     91.30% # Class of executed instruction
system.cpu2.op_class::SimdFloatMultAcc              0      0.00%     91.30% # Class of executed instruction
system.cpu2.op_class::SimdFloatSqrt                 0      0.00%     91.30% # Class of executed instruction
system.cpu2.op_class::SimdReduceAdd                 0      0.00%     91.30% # Class of executed instruction
system.cpu2.op_class::SimdReduceAlu                 0      0.00%     91.30% # Class of executed instruction
system.cpu2.op_class::SimdReduceCmp                 0      0.00%     91.30% # Class of executed instruction
system.cpu2.op_class::SimdFloatReduceAdd            0      0.00%     91.30% # Class of executed instruction
system.cpu2.op_class::SimdFloatReduceCmp            0      0.00%     91.30% # Class of executed instruction
system.cpu2.op_class::SimdAes                       0      0.00%     91.30% # Class of executed instruction
system.cpu2.op_class::SimdAesMix                    0      0.00%     91.30% # Class of executed instruction
system.cpu2.op_class::SimdSha1Hash                  0      0.00%     91.30% # Class of executed instruction
system.cpu2.op_class::SimdSha1Hash2                 0      0.00%     91.30% # Class of executed instruction
system.cpu2.op_class::SimdSha256Hash                0      0.00%     91.30% # Class of executed instruction
system.cpu2.op_class::SimdSha256Hash2               0      0.00%     91.30% # Class of executed instruction
system.cpu2.op_class::SimdShaSigma2                 0      0.00%     91.30% # Class of executed instruction
system.cpu2.op_class::SimdShaSigma3                 0      0.00%     91.30% # Class of executed instruction
system.cpu2.op_class::SimdPredAlu                   0      0.00%     91.30% # Class of executed instruction
system.cpu2.op_class::MemRead                       0      0.00%     91.30% # Class of executed instruction
system.cpu2.op_class::MemWrite                      0      0.00%     91.30% # Class of executed instruction
system.cpu2.op_class::FloatMemRead                  2      8.70%    100.00% # Class of executed instruction
system.cpu2.op_class::FloatMemWrite                 0      0.00%    100.00% # Class of executed instruction
system.cpu2.op_class::IprAccess                     0      0.00%    100.00% # Class of executed instruction
system.cpu2.op_class::InstPrefetch                  0      0.00%    100.00% # Class of executed instruction
system.cpu2.op_class::total                        23                       # Class of executed instruction
system.cpu2.workload.numSyscalls                    0                       # Number of system calls
system.cpu3.Branches                                1                       # Number of branches fetched
system.cpu3.committedInsts                         16                       # Number of instructions committed
system.cpu3.committedOps                           23                       # Number of ops (including micro ops) committed
system.cpu3.idle_fraction                           0                       # Percentage of idle cycles
system.cpu3.l2bus.snoop_filter.hit_multi_requests           12                       # Number of requests hitting in the snoop filter with multiple (>1) holders of the requested data.
system.cpu3.l2bus.snoop_filter.hit_multi_snoops            0                       # Number of snoops hitting in the snoop filter with multiple (>1) holders of the requested data.
system.cpu3.l2bus.snoop_filter.hit_single_requests     12234575                       # Number of requests hitting in the snoop filter with a single holder of the requested data.
system.cpu3.l2bus.snoop_filter.hit_single_snoops         3874                       # Number of snoops hitting in the snoop filter with a single holder of the requested data.
system.cpu3.l2bus.snoop_filter.tot_requests     24466774                       # Total number of requests made to the snoop filter.
system.cpu3.l2bus.snoop_filter.tot_snoops         3874                       # Total number of snoops made to the snoop filter.
system.cpu3.mmucache.mmubus.snoop_filter.hit_multi_requests            0                       # Number of requests hitting in the snoop filter with multiple (>1) holders of the requested data.
system.cpu3.mmucache.mmubus.snoop_filter.hit_multi_snoops            0                       # Number of snoops hitting in the snoop filter with multiple (>1) holders of the requested data.
system.cpu3.mmucache.mmubus.snoop_filter.hit_single_requests            0                       # Number of requests hitting in the snoop filter with a single holder of the requested data.
system.cpu3.mmucache.mmubus.snoop_filter.hit_single_snoops            0                       # Number of snoops hitting in the snoop filter with a single holder of the requested data.
system.cpu3.mmucache.mmubus.snoop_filter.tot_requests            0                       # Total number of requests made to the snoop filter.
system.cpu3.mmucache.mmubus.snoop_filter.tot_snoops            0                       # Total number of snoops made to the snoop filter.
system.cpu3.not_idle_fraction                       1                       # Percentage of non-idle cycles
system.cpu3.numCycles                              31                       # number of cpu cycles simulated
system.cpu3.numWorkItemsCompleted                   0                       # number of work items this cpu completed
system.cpu3.numWorkItemsStarted                     0                       # number of work items this cpu started
system.cpu3.num_busy_cycles                        31                       # Number of busy cycles
system.cpu3.num_cc_register_reads                   7                       # number of times the CC registers were read
system.cpu3.num_cc_register_writes                  2                       # number of times the CC registers were written
system.cpu3.num_conditional_control_insts            1                       # number of instructions that are conditional controls
system.cpu3.num_fp_alu_accesses                    20                       # Number of float alu accesses
system.cpu3.num_fp_insts                           20                       # number of float instructions
system.cpu3.num_fp_register_reads                  43                       # number of times the floating registers were read
system.cpu3.num_fp_register_writes                 19                       # number of times the floating registers were written
system.cpu3.num_func_calls                          0                       # number of times a function call or return occured
system.cpu3.num_idle_cycles                         0                       # Number of idle cycles
system.cpu3.num_int_alu_accesses                    5                       # Number of integer alu accesses
system.cpu3.num_int_insts                           5                       # number of integer instructions
system.cpu3.num_int_register_reads                 10                       # number of times the integer registers were read
system.cpu3.num_int_register_writes                 2                       # number of times the integer registers were written
system.cpu3.num_load_insts                          2                       # Number of load instructions
system.cpu3.num_mem_refs                            2                       # number of memory refs
system.cpu3.num_store_insts                         0                       # Number of store instructions
system.cpu3.num_vec_alu_accesses                    0                       # Number of vector alu accesses
system.cpu3.num_vec_insts                           0                       # number of vector instructions
system.cpu3.num_vec_register_reads                  0                       # number of times the vector registers were read
system.cpu3.num_vec_register_writes                 0                       # number of times the vector registers were written
system.cpu3.op_class::No_OpClass                    0      0.00%      0.00% # Class of executed instruction
system.cpu3.op_class::IntAlu                        7     30.43%     30.43% # Class of executed instruction
system.cpu3.op_class::IntMult                       0      0.00%     30.43% # Class of executed instruction
system.cpu3.op_class::IntDiv                        0      0.00%     30.43% # Class of executed instruction
system.cpu3.op_class::FloatAdd                      2      8.70%     39.13% # Class of executed instruction
system.cpu3.op_class::FloatCmp                      0      0.00%     39.13% # Class of executed instruction
system.cpu3.op_class::FloatCvt                      0      0.00%     39.13% # Class of executed instruction
system.cpu3.op_class::FloatMult                     0      0.00%     39.13% # Class of executed instruction
system.cpu3.op_class::FloatMultAcc                  0      0.00%     39.13% # Class of executed instruction
system.cpu3.op_class::FloatDiv                      0      0.00%     39.13% # Class of executed instruction
system.cpu3.op_class::FloatMisc                     0      0.00%     39.13% # Class of executed instruction
system.cpu3.op_class::FloatSqrt                     0      0.00%     39.13% # Class of executed instruction
system.cpu3.op_class::SimdAdd                       0      0.00%     39.13% # Class of executed instruction
system.cpu3.op_class::SimdAddAcc                    0      0.00%     39.13% # Class of executed instruction
system.cpu3.op_class::SimdAlu                       0      0.00%     39.13% # Class of executed instruction
system.cpu3.op_class::SimdCmp                       0      0.00%     39.13% # Class of executed instruction
system.cpu3.op_class::SimdCvt                       0      0.00%     39.13% # Class of executed instruction
system.cpu3.op_class::SimdMisc                      0      0.00%     39.13% # Class of executed instruction
system.cpu3.op_class::SimdMult                      0      0.00%     39.13% # Class of executed instruction
system.cpu3.op_class::SimdMultAcc                   0      0.00%     39.13% # Class of executed instruction
system.cpu3.op_class::SimdShift                     0      0.00%     39.13% # Class of executed instruction
system.cpu3.op_class::SimdShiftAcc                  0      0.00%     39.13% # Class of executed instruction
system.cpu3.op_class::SimdDiv                       0      0.00%     39.13% # Class of executed instruction
system.cpu3.op_class::SimdSqrt                      0      0.00%     39.13% # Class of executed instruction
system.cpu3.op_class::SimdFloatAdd                  5     21.74%     60.87% # Class of executed instruction
system.cpu3.op_class::SimdFloatAlu                  0      0.00%     60.87% # Class of executed instruction
system.cpu3.op_class::SimdFloatCmp                  1      4.35%     65.22% # Class of executed instruction
system.cpu3.op_class::SimdFloatCvt                  1      4.35%     69.57% # Class of executed instruction
system.cpu3.op_class::SimdFloatDiv                  0      0.00%     69.57% # Class of executed instruction
system.cpu3.op_class::SimdFloatMisc                 0      0.00%     69.57% # Class of executed instruction
system.cpu3.op_class::SimdFloatMult                 5     21.74%     91.30% # Class of executed instruction
system.cpu3.op_class::SimdFloatMultAcc              0      0.00%     91.30% # Class of executed instruction
system.cpu3.op_class::SimdFloatSqrt                 0      0.00%     91.30% # Class of executed instruction
system.cpu3.op_class::SimdReduceAdd                 0      0.00%     91.30% # Class of executed instruction
system.cpu3.op_class::SimdReduceAlu                 0      0.00%     91.30% # Class of executed instruction
system.cpu3.op_class::SimdReduceCmp                 0      0.00%     91.30% # Class of executed instruction
system.cpu3.op_class::SimdFloatReduceAdd            0      0.00%     91.30% # Class of executed instruction
system.cpu3.op_class::SimdFloatReduceCmp            0      0.00%     91.30% # Class of executed instruction
system.cpu3.op_class::SimdAes                       0      0.00%     91.30% # Class of executed instruction
system.cpu3.op_class::SimdAesMix                    0      0.00%     91.30% # Class of executed instruction
system.cpu3.op_class::SimdSha1Hash                  0      0.00%     91.30% # Class of executed instruction
system.cpu3.op_class::SimdSha1Hash2                 0      0.00%     91.30% # Class of executed instruction
system.cpu3.op_class::SimdSha256Hash                0      0.00%     91.30% # Class of executed instruction
system.cpu3.op_class::SimdSha256Hash2               0      0.00%     91.30% # Class of executed instruction
system.cpu3.op_class::SimdShaSigma2                 0      0.00%     91.30% # Class of executed instruction
system.cpu3.op_class::SimdShaSigma3                 0      0.00%     91.30% # Class of executed instruction
system.cpu3.op_class::SimdPredAlu                   0      0.00%     91.30% # Class of executed instruction
system.cpu3.op_class::MemRead                       0      0.00%     91.30% # Class of executed instruction
system.cpu3.op_class::MemWrite                      0      0.00%     91.30% # Class of executed instruction
system.cpu3.op_class::FloatMemRead                  2      8.70%    100.00% # Class of executed instruction
system.cpu3.op_class::FloatMemWrite                 0      0.00%    100.00% # Class of executed instruction
system.cpu3.op_class::IprAccess                     0      0.00%    100.00% # Class of executed instruction
system.cpu3.op_class::InstPrefetch                  0      0.00%    100.00% # Class of executed instruction
system.cpu3.op_class::total                        23                       # Class of executed instruction
system.cpu3.workload.numSyscalls                    0                       # Number of system calls
system.l3bus.snoop_filter.hit_multi_requests            0                       # Number of requests hitting in the snoop filter with multiple (>1) holders of the requested data.
system.l3bus.snoop_filter.hit_multi_snoops            0                       # Number of snoops hitting in the snoop filter with multiple (>1) holders of the requested data.
system.l3bus.snoop_filter.hit_single_requests     43697980                       # Number of requests hitting in the snoop filter with a single holder of the requested data.
system.l3bus.snoop_filter.hit_single_snoops            0                       # Number of snoops hitting in the snoop filter with a single holder of the requested data.
system.l3bus.snoop_filter.tot_requests       87327419                       # Total number of requests made to the snoop filter.
system.l3bus.snoop_filter.tot_snoops                0                       # Total number of snoops made to the snoop filter.
system.membus.snoop_filter.hit_multi_requests            0                       # Number of requests hitting in the snoop filter with multiple (>1) holders of the requested data.
system.membus.snoop_filter.hit_multi_snoops            0                       # Number of snoops hitting in the snoop filter with multiple (>1) holders of the requested data.
system.membus.snoop_filter.hit_single_requests     34613905                       # Number of requests hitting in the snoop filter with a single holder of the requested data.
system.membus.snoop_filter.hit_single_snoops            0                       # Number of snoops hitting in the snoop filter with a single holder of the requested data.
system.membus.snoop_filter.tot_requests      69297387                       # Total number of requests made to the snoop filter.
system.membus.snoop_filter.tot_snoops               0                       # Total number of snoops made to the snoop filter.
system.switch_cpus0.cc_regfile_reads        197376796                       # number of cc regfile reads
system.switch_cpus0.cc_regfile_writes       122602508                       # number of cc regfile writes
system.switch_cpus0.committedInsts          245717528                       # Number of Instructions Simulated
system.switch_cpus0.committedOps            439169754                       # Number of Ops (including micro ops) Simulated
system.switch_cpus0.cpi                      6.720283                       # CPI: Cycles Per Instruction
system.switch_cpus0.cpi_total                6.720283                       # CPI: Total CPI of All Threads
system.switch_cpus0.fp_regfile_reads        375876403                       # number of floating regfile reads
system.switch_cpus0.fp_regfile_writes       282994775                       # number of floating regfile writes
system.switch_cpus0.idleCycles                  51260                       # Total number of cycles that the CPU has spent unscheduled due to idling
system.switch_cpus0.iew.branchMispredicts       635503                       # Number of branch mispredicts detected at execute
system.switch_cpus0.iew.exec_branches        29139572                       # Number of branches executed
system.switch_cpus0.iew.exec_nop                    0                       # number of nop insts executed
system.switch_cpus0.iew.exec_rate            0.360316                       # Inst execution rate
system.switch_cpus0.iew.exec_refs           185409297                       # number of memory reference insts executed
system.switch_cpus0.iew.exec_stores          64330799                       # Number of stores executed
system.switch_cpus0.iew.exec_swp                    0                       # number of swp insts executed
system.switch_cpus0.iew.iewBlockCycles      303437594                       # Number of cycles IEW is blocking
system.switch_cpus0.iew.iewDispLoadInsts    114593703                       # Number of dispatched load instructions
system.switch_cpus0.iew.iewDispNonSpecInsts          114                       # Number of dispatched non-speculative instructions
system.switch_cpus0.iew.iewDispSquashedInsts         9450                       # Number of squashed instructions skipped by dispatch
system.switch_cpus0.iew.iewDispStoreInsts     65882945                       # Number of dispatched store instructions
system.switch_cpus0.iew.iewDispatchedInsts    598170181                       # Number of instructions dispatched to IQ
system.switch_cpus0.iew.iewExecLoadInsts    121078498                       # Number of load instructions executed
system.switch_cpus0.iew.iewExecSquashedInsts      1310300                       # Number of squashed instructions skipped in execute
system.switch_cpus0.iew.iewExecutedInsts    594986965                       # Number of executed instructions
system.switch_cpus0.iew.iewIQFullEvents       1715034                       # Number of times the IQ has become full, causing a stall
system.switch_cpus0.iew.iewIdleCycles               0                       # Number of cycles IEW is idle
system.switch_cpus0.iew.iewLSQFullEvents    339091884                       # Number of times the LSQ has become full, causing a stall
system.switch_cpus0.iew.iewSquashCycles       1670325                       # Number of cycles IEW is squashing
system.switch_cpus0.iew.iewUnblockCycles    341785514                       # Number of cycles IEW is unblocking
system.switch_cpus0.iew.memOrderViolationEvents         7109                       # Number of memory order violations
system.switch_cpus0.iew.predictedNotTakenIncorrect       316644                       # Number of branches that were predicted not taken incorrectly
system.switch_cpus0.iew.predictedTakenIncorrect       318859                       # Number of branches that were predicted taken incorrectly
system.switch_cpus0.iew.wb_consumers        548085469                       # num instructions consuming a value
system.switch_cpus0.iew.wb_count            571667392                       # cumulative count of insts written-back
system.switch_cpus0.iew.wb_fanout            0.618742                       # average fanout of values written-back
system.switch_cpus0.iew.wb_producers        339123375                       # num instructions producing a value
system.switch_cpus0.iew.wb_rate              0.346194                       # insts written-back per cycle
system.switch_cpus0.iew.wb_sent             584713289                       # cumulative count of insts sent to commit
system.switch_cpus0.int_regfile_reads       588625157                       # number of integer regfile reads
system.switch_cpus0.int_regfile_writes      189809540                       # number of integer regfile writes
system.switch_cpus0.ipc                      0.148803                       # IPC: Instructions Per Cycle
system.switch_cpus0.ipc_total                0.148803                       # IPC: Total IPC of All Threads
system.switch_cpus0.iq.FU_type_0::No_OpClass     13068075      2.19%      2.19% # Type of FU issued
system.switch_cpus0.iq.FU_type_0::IntAlu    247271035     41.47%     43.66% # Type of FU issued
system.switch_cpus0.iq.FU_type_0::IntMult            0      0.00%     43.66% # Type of FU issued
system.switch_cpus0.iq.FU_type_0::IntDiv            0      0.00%     43.66% # Type of FU issued
system.switch_cpus0.iq.FU_type_0::FloatAdd     72346750     12.13%     55.79% # Type of FU issued
system.switch_cpus0.iq.FU_type_0::FloatCmp            0      0.00%     55.79% # Type of FU issued
system.switch_cpus0.iq.FU_type_0::FloatCvt            0      0.00%     55.79% # Type of FU issued
system.switch_cpus0.iq.FU_type_0::FloatMult            0      0.00%     55.79% # Type of FU issued
system.switch_cpus0.iq.FU_type_0::FloatMultAcc            0      0.00%     55.79% # Type of FU issued
system.switch_cpus0.iq.FU_type_0::FloatDiv            0      0.00%     55.79% # Type of FU issued
system.switch_cpus0.iq.FU_type_0::FloatMisc            0      0.00%     55.79% # Type of FU issued
system.switch_cpus0.iq.FU_type_0::FloatSqrt            0      0.00%     55.79% # Type of FU issued
system.switch_cpus0.iq.FU_type_0::SimdAdd            0      0.00%     55.79% # Type of FU issued
system.switch_cpus0.iq.FU_type_0::SimdAddAcc            0      0.00%     55.79% # Type of FU issued
system.switch_cpus0.iq.FU_type_0::SimdAlu        54310      0.01%     55.80% # Type of FU issued
system.switch_cpus0.iq.FU_type_0::SimdCmp            0      0.00%     55.80% # Type of FU issued
system.switch_cpus0.iq.FU_type_0::SimdCvt            0      0.00%     55.80% # Type of FU issued
system.switch_cpus0.iq.FU_type_0::SimdMisc            0      0.00%     55.80% # Type of FU issued
system.switch_cpus0.iq.FU_type_0::SimdMult            0      0.00%     55.80% # Type of FU issued
system.switch_cpus0.iq.FU_type_0::SimdMultAcc            0      0.00%     55.80% # Type of FU issued
system.switch_cpus0.iq.FU_type_0::SimdShift            0      0.00%     55.80% # Type of FU issued
system.switch_cpus0.iq.FU_type_0::SimdShiftAcc            0      0.00%     55.80% # Type of FU issued
system.switch_cpus0.iq.FU_type_0::SimdDiv            0      0.00%     55.80% # Type of FU issued
system.switch_cpus0.iq.FU_type_0::SimdSqrt            0      0.00%     55.80% # Type of FU issued
system.switch_cpus0.iq.FU_type_0::SimdFloatAdd     28265397      4.74%     60.54% # Type of FU issued
system.switch_cpus0.iq.FU_type_0::SimdFloatAlu            0      0.00%     60.54% # Type of FU issued
system.switch_cpus0.iq.FU_type_0::SimdFloatCmp     29162792      4.89%     65.43% # Type of FU issued
system.switch_cpus0.iq.FU_type_0::SimdFloatCvt      5611786      0.94%     66.37% # Type of FU issued
system.switch_cpus0.iq.FU_type_0::SimdFloatDiv            0      0.00%     66.37% # Type of FU issued
system.switch_cpus0.iq.FU_type_0::SimdFloatMisc            0      0.00%     66.37% # Type of FU issued
system.switch_cpus0.iq.FU_type_0::SimdFloatMult     14771392      2.48%     68.85% # Type of FU issued
system.switch_cpus0.iq.FU_type_0::SimdFloatMultAcc            0      0.00%     68.85% # Type of FU issued
system.switch_cpus0.iq.FU_type_0::SimdFloatSqrt            0      0.00%     68.85% # Type of FU issued
system.switch_cpus0.iq.FU_type_0::SimdReduceAdd            0      0.00%     68.85% # Type of FU issued
system.switch_cpus0.iq.FU_type_0::SimdReduceAlu            0      0.00%     68.85% # Type of FU issued
system.switch_cpus0.iq.FU_type_0::SimdReduceCmp            0      0.00%     68.85% # Type of FU issued
system.switch_cpus0.iq.FU_type_0::SimdFloatReduceAdd            0      0.00%     68.85% # Type of FU issued
system.switch_cpus0.iq.FU_type_0::SimdFloatReduceCmp            0      0.00%     68.85% # Type of FU issued
system.switch_cpus0.iq.FU_type_0::SimdAes            0      0.00%     68.85% # Type of FU issued
system.switch_cpus0.iq.FU_type_0::SimdAesMix            0      0.00%     68.85% # Type of FU issued
system.switch_cpus0.iq.FU_type_0::SimdSha1Hash            0      0.00%     68.85% # Type of FU issued
system.switch_cpus0.iq.FU_type_0::SimdSha1Hash2            0      0.00%     68.85% # Type of FU issued
system.switch_cpus0.iq.FU_type_0::SimdSha256Hash            0      0.00%     68.85% # Type of FU issued
system.switch_cpus0.iq.FU_type_0::SimdSha256Hash2            0      0.00%     68.85% # Type of FU issued
system.switch_cpus0.iq.FU_type_0::SimdShaSigma2            0      0.00%     68.85% # Type of FU issued
system.switch_cpus0.iq.FU_type_0::SimdShaSigma3            0      0.00%     68.85% # Type of FU issued
system.switch_cpus0.iq.FU_type_0::SimdPredAlu            0      0.00%     68.85% # Type of FU issued
system.switch_cpus0.iq.FU_type_0::MemRead     26932324      4.52%     73.37% # Type of FU issued
system.switch_cpus0.iq.FU_type_0::MemWrite     21481283      3.60%     76.97% # Type of FU issued
system.switch_cpus0.iq.FU_type_0::FloatMemRead     94382629     15.83%     92.80% # Type of FU issued
system.switch_cpus0.iq.FU_type_0::FloatMemWrite     42949497      7.20%    100.00% # Type of FU issued
system.switch_cpus0.iq.FU_type_0::IprAccess            0      0.00%    100.00% # Type of FU issued
system.switch_cpus0.iq.FU_type_0::InstPrefetch            0      0.00%    100.00% # Type of FU issued
system.switch_cpus0.iq.FU_type_0::total     596297270                       # Type of FU issued
system.switch_cpus0.iq.fp_alu_accesses      354991205                       # Number of floating point alu accesses
system.switch_cpus0.iq.fp_inst_queue_reads    695107607                       # Number of floating instruction queue reads
system.switch_cpus0.iq.fp_inst_queue_wakeup_accesses    331481125                       # Number of floating instruction queue wakeup accesses
system.switch_cpus0.iq.fp_inst_queue_writes    383529972                       # Number of floating instruction queue writes
system.switch_cpus0.iq.fu_busy_cnt           24738257                       # FU busy when requested
system.switch_cpus0.iq.fu_busy_rate          0.041486                       # FU busy rate (busy events/executed inst)
system.switch_cpus0.iq.fu_full::No_OpClass            0      0.00%      0.00% # attempts to use FU when none available
system.switch_cpus0.iq.fu_full::IntAlu        1196497      4.84%      4.84% # attempts to use FU when none available
system.switch_cpus0.iq.fu_full::IntMult             0      0.00%      4.84% # attempts to use FU when none available
system.switch_cpus0.iq.fu_full::IntDiv              0      0.00%      4.84% # attempts to use FU when none available
system.switch_cpus0.iq.fu_full::FloatAdd        23842      0.10%      4.93% # attempts to use FU when none available
system.switch_cpus0.iq.fu_full::FloatCmp            0      0.00%      4.93% # attempts to use FU when none available
system.switch_cpus0.iq.fu_full::FloatCvt            0      0.00%      4.93% # attempts to use FU when none available
system.switch_cpus0.iq.fu_full::FloatMult            0      0.00%      4.93% # attempts to use FU when none available
system.switch_cpus0.iq.fu_full::FloatMultAcc            0      0.00%      4.93% # attempts to use FU when none available
system.switch_cpus0.iq.fu_full::FloatDiv            0      0.00%      4.93% # attempts to use FU when none available
system.switch_cpus0.iq.fu_full::FloatMisc            0      0.00%      4.93% # attempts to use FU when none available
system.switch_cpus0.iq.fu_full::FloatSqrt            0      0.00%      4.93% # attempts to use FU when none available
system.switch_cpus0.iq.fu_full::SimdAdd             0      0.00%      4.93% # attempts to use FU when none available
system.switch_cpus0.iq.fu_full::SimdAddAcc            0      0.00%      4.93% # attempts to use FU when none available
system.switch_cpus0.iq.fu_full::SimdAlu             0      0.00%      4.93% # attempts to use FU when none available
system.switch_cpus0.iq.fu_full::SimdCmp             0      0.00%      4.93% # attempts to use FU when none available
system.switch_cpus0.iq.fu_full::SimdCvt             0      0.00%      4.93% # attempts to use FU when none available
system.switch_cpus0.iq.fu_full::SimdMisc            0      0.00%      4.93% # attempts to use FU when none available
system.switch_cpus0.iq.fu_full::SimdMult            0      0.00%      4.93% # attempts to use FU when none available
system.switch_cpus0.iq.fu_full::SimdMultAcc            0      0.00%      4.93% # attempts to use FU when none available
system.switch_cpus0.iq.fu_full::SimdShift            0      0.00%      4.93% # attempts to use FU when none available
system.switch_cpus0.iq.fu_full::SimdShiftAcc            0      0.00%      4.93% # attempts to use FU when none available
system.switch_cpus0.iq.fu_full::SimdDiv             0      0.00%      4.93% # attempts to use FU when none available
system.switch_cpus0.iq.fu_full::SimdSqrt            0      0.00%      4.93% # attempts to use FU when none available
system.switch_cpus0.iq.fu_full::SimdFloatAdd       207753      0.84%      5.77% # attempts to use FU when none available
system.switch_cpus0.iq.fu_full::SimdFloatAlu            0      0.00%      5.77% # attempts to use FU when none available
system.switch_cpus0.iq.fu_full::SimdFloatCmp       894738      3.62%      9.39% # attempts to use FU when none available
system.switch_cpus0.iq.fu_full::SimdFloatCvt            0      0.00%      9.39% # attempts to use FU when none available
system.switch_cpus0.iq.fu_full::SimdFloatDiv            0      0.00%      9.39% # attempts to use FU when none available
system.switch_cpus0.iq.fu_full::SimdFloatMisc            0      0.00%      9.39% # attempts to use FU when none available
system.switch_cpus0.iq.fu_full::SimdFloatMult        23523      0.10%      9.48% # attempts to use FU when none available
system.switch_cpus0.iq.fu_full::SimdFloatMultAcc            0      0.00%      9.48% # attempts to use FU when none available
system.switch_cpus0.iq.fu_full::SimdFloatSqrt            0      0.00%      9.48% # attempts to use FU when none available
system.switch_cpus0.iq.fu_full::SimdReduceAdd            0      0.00%      9.48% # attempts to use FU when none available
system.switch_cpus0.iq.fu_full::SimdReduceAlu            0      0.00%      9.48% # attempts to use FU when none available
system.switch_cpus0.iq.fu_full::SimdReduceCmp            0      0.00%      9.48% # attempts to use FU when none available
system.switch_cpus0.iq.fu_full::SimdFloatReduceAdd            0      0.00%      9.48% # attempts to use FU when none available
system.switch_cpus0.iq.fu_full::SimdFloatReduceCmp            0      0.00%      9.48% # attempts to use FU when none available
system.switch_cpus0.iq.fu_full::SimdAes             0      0.00%      9.48% # attempts to use FU when none available
system.switch_cpus0.iq.fu_full::SimdAesMix            0      0.00%      9.48% # attempts to use FU when none available
system.switch_cpus0.iq.fu_full::SimdSha1Hash            0      0.00%      9.48% # attempts to use FU when none available
system.switch_cpus0.iq.fu_full::SimdSha1Hash2            0      0.00%      9.48% # attempts to use FU when none available
system.switch_cpus0.iq.fu_full::SimdSha256Hash            0      0.00%      9.48% # attempts to use FU when none available
system.switch_cpus0.iq.fu_full::SimdSha256Hash2            0      0.00%      9.48% # attempts to use FU when none available
system.switch_cpus0.iq.fu_full::SimdShaSigma2            0      0.00%      9.48% # attempts to use FU when none available
system.switch_cpus0.iq.fu_full::SimdShaSigma3            0      0.00%      9.48% # attempts to use FU when none available
system.switch_cpus0.iq.fu_full::SimdPredAlu            0      0.00%      9.48% # attempts to use FU when none available
system.switch_cpus0.iq.fu_full::MemRead       1806862      7.30%     16.79% # attempts to use FU when none available
system.switch_cpus0.iq.fu_full::MemWrite      6862890     27.74%     44.53% # attempts to use FU when none available
system.switch_cpus0.iq.fu_full::FloatMemRead     10007713     40.45%     84.99% # attempts to use FU when none available
system.switch_cpus0.iq.fu_full::FloatMemWrite      3714439     15.01%    100.00% # attempts to use FU when none available
system.switch_cpus0.iq.fu_full::IprAccess            0      0.00%    100.00% # attempts to use FU when none available
system.switch_cpus0.iq.fu_full::InstPrefetch            0      0.00%    100.00% # attempts to use FU when none available
system.switch_cpus0.iq.int_alu_accesses     252976247                       # Number of integer alu accesses
system.switch_cpus0.iq.int_inst_queue_reads   2173652804                       # Number of integer instruction queue reads
system.switch_cpus0.iq.int_inst_queue_wakeup_accesses    240186267                       # Number of integer instruction queue wakeup accesses
system.switch_cpus0.iq.int_inst_queue_writes    373647542                       # Number of integer instruction queue writes
system.switch_cpus0.iq.iqInstsAdded         598160259                       # Number of instructions added to the IQ (excludes non-spec)
system.switch_cpus0.iq.iqInstsIssued        596297270                       # Number of instructions issued
system.switch_cpus0.iq.iqNonSpecInstsAdded         9922                       # Number of non-speculative instructions added to the IQ
system.switch_cpus0.iq.iqSquashedInstsExamined    159000409                       # Number of squashed instructions iterated over during squash; mainly for profiling
system.switch_cpus0.iq.iqSquashedInstsIssued       187623                       # Number of squashed instructions issued
system.switch_cpus0.iq.iqSquashedNonSpecRemoved         8937                       # Number of squashed non-spec instructions that were removed
system.switch_cpus0.iq.iqSquashedOperandsExamined     52390964                       # Number of squashed operands that are examined and possibly removed from graph
system.switch_cpus0.iq.issued_per_cycle::samples   1651239996                       # Number of insts issued each cycle
system.switch_cpus0.iq.issued_per_cycle::mean     0.361121                       # Number of insts issued each cycle
system.switch_cpus0.iq.issued_per_cycle::stdev     1.303536                       # Number of insts issued each cycle
system.switch_cpus0.iq.issued_per_cycle::underflows            0      0.00%      0.00% # Number of insts issued each cycle
system.switch_cpus0.iq.issued_per_cycle::0   1485971973     89.99%     89.99% # Number of insts issued each cycle
system.switch_cpus0.iq.issued_per_cycle::1     40594804      2.46%     92.45% # Number of insts issued each cycle
system.switch_cpus0.iq.issued_per_cycle::2     28300080      1.71%     94.16% # Number of insts issued each cycle
system.switch_cpus0.iq.issued_per_cycle::3     20353532      1.23%     95.40% # Number of insts issued each cycle
system.switch_cpus0.iq.issued_per_cycle::4     20381457      1.23%     96.63% # Number of insts issued each cycle
system.switch_cpus0.iq.issued_per_cycle::5     15785702      0.96%     97.59% # Number of insts issued each cycle
system.switch_cpus0.iq.issued_per_cycle::6     15667807      0.95%     98.54% # Number of insts issued each cycle
system.switch_cpus0.iq.issued_per_cycle::7      9896598      0.60%     99.13% # Number of insts issued each cycle
system.switch_cpus0.iq.issued_per_cycle::8     14288043      0.87%    100.00% # Number of insts issued each cycle
system.switch_cpus0.iq.issued_per_cycle::overflows            0      0.00%    100.00% # Number of insts issued each cycle
system.switch_cpus0.iq.issued_per_cycle::min_value            0                       # Number of insts issued each cycle
system.switch_cpus0.iq.issued_per_cycle::max_value            8                       # Number of insts issued each cycle
system.switch_cpus0.iq.issued_per_cycle::total   1651239996                       # Number of insts issued each cycle
system.switch_cpus0.iq.rate                  0.361110                       # Inst issue rate
system.switch_cpus0.iq.vec_alu_accesses             0                       # Number of vector alu accesses
system.switch_cpus0.iq.vec_inst_queue_reads            0                       # Number of vector instruction queue reads
system.switch_cpus0.iq.vec_inst_queue_wakeup_accesses            0                       # Number of vector instruction queue wakeup accesses
system.switch_cpus0.iq.vec_inst_queue_writes            0                       # Number of vector instruction queue writes
system.switch_cpus0.memDep0.conflictingLoads     17142973                       # Number of conflicting loads.
system.switch_cpus0.memDep0.conflictingStores     16352189                       # Number of conflicting stores.
system.switch_cpus0.memDep0.insertedLoads    114593703                       # Number of loads inserted to the mem dependence unit.
system.switch_cpus0.memDep0.insertedStores     65882945                       # Number of stores inserted to the mem dependence unit.
system.switch_cpus0.misc_regfile_reads      245443155                       # number of misc regfile reads
system.switch_cpus0.misc_regfile_writes             1                       # number of misc regfile writes
system.switch_cpus0.numCycles              1651291256                       # number of cpu cycles simulated
system.switch_cpus0.numWorkItemsCompleted            0                       # number of work items this cpu completed
system.switch_cpus0.numWorkItemsStarted             0                       # number of work items this cpu started
system.switch_cpus0.timesIdled                    150                       # Number of times that the entire CPU went into an idle state and unscheduled itself
system.switch_cpus1.cc_regfile_reads        199908661                       # number of cc regfile reads
system.switch_cpus1.cc_regfile_writes       123648839                       # number of cc regfile writes
system.switch_cpus1.committedInsts          249765378                       # Number of Instructions Simulated
system.switch_cpus1.committedOps            446580265                       # Number of Ops (including micro ops) Simulated
system.switch_cpus1.cpi                      6.611370                       # CPI: Cycles Per Instruction
system.switch_cpus1.cpi_total                6.611370                       # CPI: Total CPI of All Threads
system.switch_cpus1.fp_regfile_reads        381414963                       # number of floating regfile reads
system.switch_cpus1.fp_regfile_writes       287291885                       # number of floating regfile writes
system.switch_cpus1.idleCycles                  42755                       # Total number of cycles that the CPU has spent unscheduled due to idling
system.switch_cpus1.iew.branchMispredicts       646650                       # Number of branch mispredicts detected at execute
system.switch_cpus1.iew.exec_branches        29528600                       # Number of branches executed
system.switch_cpus1.iew.exec_nop                    0                       # number of nop insts executed
system.switch_cpus1.iew.exec_rate            0.364301                       # Inst execution rate
system.switch_cpus1.iew.exec_refs           186649324                       # number of memory reference insts executed
system.switch_cpus1.iew.exec_stores          65045251                       # Number of stores executed
system.switch_cpus1.iew.exec_swp                    0                       # number of swp insts executed
system.switch_cpus1.iew.iewBlockCycles      306866335                       # Number of cycles IEW is blocking
system.switch_cpus1.iew.iewDispLoadInsts    116066468                       # Number of dispatched load instructions
system.switch_cpus1.iew.iewDispNonSpecInsts          121                       # Number of dispatched non-speculative instructions
system.switch_cpus1.iew.iewDispSquashedInsts        10736                       # Number of squashed instructions skipped by dispatch
system.switch_cpus1.iew.iewDispStoreInsts     66603335                       # Number of dispatched store instructions
system.switch_cpus1.iew.iewDispatchedInsts    605801618                       # Number of instructions dispatched to IQ
system.switch_cpus1.iew.iewExecLoadInsts    121604073                       # Number of load instructions executed
system.switch_cpus1.iew.iewExecSquashedInsts      1394385                       # Number of squashed instructions skipped in execute
system.switch_cpus1.iew.iewExecutedInsts    601566749                       # Number of executed instructions
system.switch_cpus1.iew.iewIQFullEvents       1626307                       # Number of times the IQ has become full, causing a stall
system.switch_cpus1.iew.iewIdleCycles               0                       # Number of cycles IEW is idle
system.switch_cpus1.iew.iewLSQFullEvents    345164641                       # Number of times the LSQ has become full, causing a stall
system.switch_cpus1.iew.iewSquashCycles       1686450                       # Number of cycles IEW is squashing
system.switch_cpus1.iew.iewUnblockCycles    347695415                       # Number of cycles IEW is unblocking
system.switch_cpus1.iew.memOrderViolationEvents         7736                       # Number of memory order violations
system.switch_cpus1.iew.predictedNotTakenIncorrect       321058                       # Number of branches that were predicted not taken incorrectly
system.switch_cpus1.iew.predictedTakenIncorrect       325592                       # Number of branches that were predicted taken incorrectly
system.switch_cpus1.iew.wb_consumers        556144819                       # num instructions consuming a value
system.switch_cpus1.iew.wb_count            579154411                       # cumulative count of insts written-back
system.switch_cpus1.iew.wb_fanout            0.618716                       # average fanout of values written-back
system.switch_cpus1.iew.wb_producers        344095926                       # num instructions producing a value
system.switch_cpus1.iew.wb_rate              0.350728                       # insts written-back per cycle
system.switch_cpus1.iew.wb_sent             592303966                       # cumulative count of insts sent to commit
system.switch_cpus1.int_regfile_reads       593814396                       # number of integer regfile reads
system.switch_cpus1.int_regfile_writes      191815011                       # number of integer regfile writes
system.switch_cpus1.ipc                      0.151255                       # IPC: Instructions Per Cycle
system.switch_cpus1.ipc_total                0.151255                       # IPC: Total IPC of All Threads
system.switch_cpus1.iq.FU_type_0::No_OpClass     13174391      2.18%      2.18% # Type of FU issued
system.switch_cpus1.iq.FU_type_0::IntAlu    250132868     41.48%     43.67% # Type of FU issued
system.switch_cpus1.iq.FU_type_0::IntMult            0      0.00%     43.67% # Type of FU issued
system.switch_cpus1.iq.FU_type_0::IntDiv            0      0.00%     43.67% # Type of FU issued
system.switch_cpus1.iq.FU_type_0::FloatAdd     73581463     12.20%     55.87% # Type of FU issued
system.switch_cpus1.iq.FU_type_0::FloatCmp            0      0.00%     55.87% # Type of FU issued
system.switch_cpus1.iq.FU_type_0::FloatCvt            0      0.00%     55.87% # Type of FU issued
system.switch_cpus1.iq.FU_type_0::FloatMult            0      0.00%     55.87% # Type of FU issued
system.switch_cpus1.iq.FU_type_0::FloatMultAcc            0      0.00%     55.87% # Type of FU issued
system.switch_cpus1.iq.FU_type_0::FloatDiv            0      0.00%     55.87% # Type of FU issued
system.switch_cpus1.iq.FU_type_0::FloatMisc            0      0.00%     55.87% # Type of FU issued
system.switch_cpus1.iq.FU_type_0::FloatSqrt            0      0.00%     55.87% # Type of FU issued
system.switch_cpus1.iq.FU_type_0::SimdAdd            0      0.00%     55.87% # Type of FU issued
system.switch_cpus1.iq.FU_type_0::SimdAddAcc            0      0.00%     55.87% # Type of FU issued
system.switch_cpus1.iq.FU_type_0::SimdAlu        58006      0.01%     55.88% # Type of FU issued
system.switch_cpus1.iq.FU_type_0::SimdCmp            0      0.00%     55.88% # Type of FU issued
system.switch_cpus1.iq.FU_type_0::SimdCvt            0      0.00%     55.88% # Type of FU issued
system.switch_cpus1.iq.FU_type_0::SimdMisc            0      0.00%     55.88% # Type of FU issued
system.switch_cpus1.iq.FU_type_0::SimdMult            0      0.00%     55.88% # Type of FU issued
system.switch_cpus1.iq.FU_type_0::SimdMultAcc            0      0.00%     55.88% # Type of FU issued
system.switch_cpus1.iq.FU_type_0::SimdShift            0      0.00%     55.88% # Type of FU issued
system.switch_cpus1.iq.FU_type_0::SimdShiftAcc            0      0.00%     55.88% # Type of FU issued
system.switch_cpus1.iq.FU_type_0::SimdDiv            0      0.00%     55.88% # Type of FU issued
system.switch_cpus1.iq.FU_type_0::SimdSqrt            0      0.00%     55.88% # Type of FU issued
system.switch_cpus1.iq.FU_type_0::SimdFloatAdd     28682052      4.76%     60.64% # Type of FU issued
system.switch_cpus1.iq.FU_type_0::SimdFloatAlu            0      0.00%     60.64% # Type of FU issued
system.switch_cpus1.iq.FU_type_0::SimdFloatCmp     29631382      4.91%     65.55% # Type of FU issued
system.switch_cpus1.iq.FU_type_0::SimdFloatCvt      5707283      0.95%     66.50% # Type of FU issued
system.switch_cpus1.iq.FU_type_0::SimdFloatDiv            0      0.00%     66.50% # Type of FU issued
system.switch_cpus1.iq.FU_type_0::SimdFloatMisc            0      0.00%     66.50% # Type of FU issued
system.switch_cpus1.iq.FU_type_0::SimdFloatMult     14984399      2.49%     68.98% # Type of FU issued
system.switch_cpus1.iq.FU_type_0::SimdFloatMultAcc            0      0.00%     68.98% # Type of FU issued
system.switch_cpus1.iq.FU_type_0::SimdFloatSqrt            0      0.00%     68.98% # Type of FU issued
system.switch_cpus1.iq.FU_type_0::SimdReduceAdd            0      0.00%     68.98% # Type of FU issued
system.switch_cpus1.iq.FU_type_0::SimdReduceAlu            0      0.00%     68.98% # Type of FU issued
system.switch_cpus1.iq.FU_type_0::SimdReduceCmp            0      0.00%     68.98% # Type of FU issued
system.switch_cpus1.iq.FU_type_0::SimdFloatReduceAdd            0      0.00%     68.98% # Type of FU issued
system.switch_cpus1.iq.FU_type_0::SimdFloatReduceCmp            0      0.00%     68.98% # Type of FU issued
[...]
system.switch_cpus3.commit.numCommittedDist::0   1526305308     93.48%     93.48% # Number of insts commited each cycle
system.switch_cpus3.commit.numCommittedDist::1     37543420      2.30%     95.78% # Number of insts commited each cycle
system.switch_cpus3.commit.numCommittedDist::2      5129770      0.31%     96.09% # Number of insts commited each cycle
system.switch_cpus3.commit.numCommittedDist::3      9265994      0.57%     96.66% # Number of insts commited each cycle
system.switch_cpus3.commit.numCommittedDist::4     10424401      0.64%     97.30% # Number of insts commited each cycle
system.switch_cpus3.commit.numCommittedDist::5      3431043      0.21%     97.51% # Number of insts commited each cycle
system.switch_cpus3.commit.numCommittedDist::6      4367735      0.27%     97.78% # Number of insts commited each cycle
system.switch_cpus3.commit.numCommittedDist::7      3856015      0.24%     98.01% # Number of insts commited each cycle
system.switch_cpus3.commit.numCommittedDist::8     32417523      1.99%    100.00% # Number of insts commited each cycle
system.switch_cpus3.commit.numCommittedDist::overflows            0      0.00%    100.00% # Number of insts commited each cycle
system.switch_cpus3.commit.numCommittedDist::min_value            0                       # Number of insts commited each cycle
system.switch_cpus3.commit.numCommittedDist::max_value            8                       # Number of insts commited each cycle
system.switch_cpus3.commit.numCommittedDist::total   1632741209                       # Number of insts commited each cycle
system.switch_cpus3.commit.instsCommitted    250000000                       # Number of instructions committed
system.switch_cpus3.commit.opsCommitted     446992460                       # Number of ops (including micro ops) committed
system.switch_cpus3.commit.memRefs          107949231                       # Number of memory references committed
system.switch_cpus3.commit.loads             80236817                       # Number of loads committed
system.switch_cpus3.commit.amos                     0                       # Number of atomic instructions committed
system.switch_cpus3.commit.membars                100                       # Number of memory barriers committed
system.switch_cpus3.commit.branches          23624370                       # Number of branches committed
system.switch_cpus3.commit.vector                   0                       # Number of committed Vector instructions.
system.switch_cpus3.commit.floating         287099960                       # Number of committed floating point instructions.
system.switch_cpus3.commit.integer          242688568                       # Number of committed integer instructions.
system.switch_cpus3.commit.functionCalls       836070                       # Number of function calls committed.
system.switch_cpus3.commit.committedInstType_0::No_OpClass       267809      0.06%      0.06% # Class of committed instruction
system.switch_cpus3.commit.committedInstType_0::IntAlu    187368581     41.92%     41.98% # Class of committed instruction
system.switch_cpus3.commit.committedInstType_0::IntMult            0      0.00%     41.98% # Class of committed instruction
system.switch_cpus3.commit.committedInstType_0::IntDiv            0      0.00%     41.98% # Class of committed instruction
system.switch_cpus3.commit.committedInstType_0::FloatAdd     72687810     16.26%     58.24% # Class of committed instruction
system.switch_cpus3.commit.committedInstType_0::FloatCmp            0      0.00%     58.24% # Class of committed instruction
system.switch_cpus3.commit.committedInstType_0::FloatCvt            0      0.00%     58.24% # Class of committed instruction
system.switch_cpus3.commit.committedInstType_0::FloatMult            0      0.00%     58.24% # Class of committed instruction
system.switch_cpus3.commit.committedInstType_0::FloatMultAcc            0      0.00%     58.24% # Class of committed instruction
system.switch_cpus3.commit.committedInstType_0::FloatDiv            0      0.00%     58.24% # Class of committed instruction
system.switch_cpus3.commit.committedInstType_0::FloatMisc            0      0.00%     58.24% # Class of committed instruction
system.switch_cpus3.commit.committedInstType_0::FloatSqrt            0      0.00%     58.24% # Class of committed instruction
system.switch_cpus3.commit.committedInstType_0::SimdAdd            0      0.00%     58.24% # Class of committed instruction
system.switch_cpus3.commit.committedInstType_0::SimdAddAcc            0      0.00%     58.24% # Class of committed instruction
system.switch_cpus3.commit.committedInstType_0::SimdAlu        53360      0.01%     58.25% # Class of committed instruction
system.switch_cpus3.commit.committedInstType_0::SimdCmp            0      0.00%     58.25% # Class of committed instruction
system.switch_cpus3.commit.committedInstType_0::SimdCvt            0      0.00%     58.25% # Class of committed instruction
system.switch_cpus3.commit.committedInstType_0::SimdMisc            0      0.00%     58.25% # Class of committed instruction
system.switch_cpus3.commit.committedInstType_0::SimdMult            0      0.00%     58.25% # Class of committed instruction
system.switch_cpus3.commit.committedInstType_0::SimdMultAcc            0      0.00%     58.25% # Class of committed instruction
system.switch_cpus3.commit.committedInstType_0::SimdShift            0      0.00%     58.25% # Class of committed instruction
system.switch_cpus3.commit.committedInstType_0::SimdShiftAcc            0      0.00%     58.25% # Class of committed instruction
system.switch_cpus3.commit.committedInstType_0::SimdDiv            0      0.00%     58.25% # Class of committed instruction
system.switch_cpus3.commit.committedInstType_0::SimdSqrt            0      0.00%     58.25% # Class of committed instruction
system.switch_cpus3.commit.committedInstType_0::SimdFloatAdd     28564339      6.39%     64.64% # Class of committed instruction
system.switch_cpus3.commit.committedInstType_0::SimdFloatAlu            0      0.00%     64.64% # Class of committed instruction
system.switch_cpus3.commit.committedInstType_0::SimdFloatCmp     29489018      6.60%     71.24% # Class of committed instruction
system.switch_cpus3.commit.committedInstType_0::SimdFloatCvt      5675784      1.27%     72.51% # Class of committed instruction
system.switch_cpus3.commit.committedInstType_0::SimdFloatDiv            0      0.00%     72.51% # Class of committed instruction
system.switch_cpus3.commit.committedInstType_0::SimdFloatMisc            0      0.00%     72.51% # Class of committed instruction
system.switch_cpus3.commit.committedInstType_0::SimdFloatMult     14936528      3.34%     75.85% # Class of committed instruction
system.switch_cpus3.commit.committedInstType_0::SimdFloatMultAcc            0      0.00%     75.85% # Class of committed instruction
system.switch_cpus3.commit.committedInstType_0::SimdFloatSqrt            0      0.00%     75.85% # Class of committed instruction
system.switch_cpus3.commit.committedInstType_0::SimdReduceAdd            0      0.00%     75.85% # Class of committed instruction
system.switch_cpus3.commit.committedInstType_0::SimdReduceAlu            0      0.00%     75.85% # Class of committed instruction
system.switch_cpus3.commit.committedInstType_0::SimdReduceCmp            0      0.00%     75.85% # Class of committed instruction
system.switch_cpus3.commit.committedInstType_0::SimdFloatReduceAdd            0      0.00%     75.85% # Class of committed instruction
system.switch_cpus3.commit.committedInstType_0::SimdFloatReduceCmp            0      0.00%     75.85% # Class of committed instruction
system.switch_cpus3.commit.committedInstType_0::SimdAes            0      0.00%     75.85% # Class of committed instruction
system.switch_cpus3.commit.committedInstType_0::SimdAesMix            0      0.00%     75.85% # Class of committed instruction
system.switch_cpus3.commit.committedInstType_0::SimdSha1Hash            0      0.00%     75.85% # Class of committed instruction
system.switch_cpus3.commit.committedInstType_0::SimdSha1Hash2            0      0.00%     75.85% # Class of committed instruction
system.switch_cpus3.commit.committedInstType_0::SimdSha256Hash            0      0.00%     75.85% # Class of committed instruction
system.switch_cpus3.commit.committedInstType_0::SimdSha256Hash2            0      0.00%     75.85% # Class of committed instruction
system.switch_cpus3.commit.committedInstType_0::SimdShaSigma2            0      0.00%     75.85% # Class of committed instruction
system.switch_cpus3.commit.committedInstType_0::SimdShaSigma3            0      0.00%     75.85% # Class of committed instruction
system.switch_cpus3.commit.committedInstType_0::SimdPredAlu            0      0.00%     75.85% # Class of committed instruction
system.switch_cpus3.commit.committedInstType_0::MemRead     16946955      3.79%     79.64% # Class of committed instruction
system.switch_cpus3.commit.committedInstType_0::MemWrite      7929919      1.77%     81.42% # Class of committed instruction
system.switch_cpus3.commit.committedInstType_0::FloatMemRead     63289862     14.16%     95.57% # Class of committed instruction
system.switch_cpus3.commit.committedInstType_0::FloatMemWrite     19782495      4.43%    100.00% # Class of committed instruction
system.switch_cpus3.commit.committedInstType_0::IprAccess            0      0.00%    100.00% # Class of committed instruction
system.switch_cpus3.commit.committedInstType_0::InstPrefetch            0      0.00%    100.00% # Class of committed instruction
system.switch_cpus3.commit.committedInstType_0::total    446992460                       # Class of committed instruction
system.switch_cpus3.commit.commitEligibleSamples     32417523                       # number cycles where commit BW limit reached
system.switch_cpus3.decode.idleCycles        15423904                       # Number of cycles decode is idle
system.switch_cpus3.decode.blockedCycles   1551828421                       # Number of cycles decode is blocked
system.switch_cpus3.decode.runCycles         52510103                       # Number of cycles decode is running
system.switch_cpus3.decode.unblockCycles     29794323                       # Number of cycles decode is unblocking
system.switch_cpus3.decode.squashCycles       1688034                       # Number of cycles decode is squashing
system.switch_cpus3.decode.branchResolved     17699068                       # Number of times decode resolved a  branch
system.switch_cpus3.decode.branchMispred          391                       # Number of times decode detected a branch misprediction
system.switch_cpus3.decode.decodedInsts     625369867                       # Number of instructions handled by decode
system.switch_cpus3.decode.squashedInsts         2392                       # Number of squashed instructions handled by decode
system.switch_cpus3.dtb.rdAccesses          123717721                       # TLB accesses on read requests
system.switch_cpus3.dtb.wrAccesses           65096651                       # TLB accesses on write requests
system.switch_cpus3.dtb.rdMisses              2728184                       # TLB misses on read requests
system.switch_cpus3.dtb.wrMisses               329642                       # TLB misses on write requests
system.switch_cpus3.dtb.walker.power_state.pwrStateResidencyTicks::UNDEFINED 18769042239930                       # Cumulative time (in ticks) in various power states
system.switch_cpus3.fetch.icacheStallCycles       841335                       # Number of cycles fetch is stalled on an Icache miss
system.switch_cpus3.fetch.insts             359420274                       # Number of instructions fetch has processed
system.switch_cpus3.fetch.branches           36767436                       # Number of branches that fetch encountered
system.switch_cpus3.fetch.predictedBranches     21716148                       # Number of branches that fetch has predicted taken
system.switch_cpus3.fetch.cycles           1648712887                       # Number of cycles fetch has run and was not squashing or blocked
system.switch_cpus3.fetch.squashCycles        3376814                       # Number of cycles fetch has spent squashing
system.switch_cpus3.fetch.miscStallCycles          106                       # Number of cycles fetch has spent waiting on interrupts,or bad addresses, or out of MSHRs
system.switch_cpus3.fetch.pendingTrapStallCycles         2053                       # Number of stall cycles due to pending traps
system.switch_cpus3.fetch.cacheLines         46311053                       # Number of cache lines fetched
system.switch_cpus3.fetch.icacheSquashes          189                       # Number of outstanding Icache misses that were squashed
system.switch_cpus3.fetch.nisnDist::samples   1651244788                       # Number of instructions fetched each cycle (Total)
system.switch_cpus3.fetch.nisnDist::mean     0.416059                       # Number of instructions fetched each cycle (Total)
system.switch_cpus3.fetch.nisnDist::stdev     1.653329                       # Number of instructions fetched each cycle (Total)
system.switch_cpus3.fetch.nisnDist::underflows            0      0.00%      0.00% # Number of instructions fetched each cycle (Total)
system.switch_cpus3.fetch.nisnDist::0      1536832609     93.07%     93.07% # Number of instructions fetched each cycle (Total)
system.switch_cpus3.fetch.nisnDist::1         4961573      0.30%     93.37% # Number of instructions fetched each cycle (Total)
system.switch_cpus3.fetch.nisnDist::2        12882951      0.78%     94.15% # Number of instructions fetched each cycle (Total)
system.switch_cpus3.fetch.nisnDist::3         7596083      0.46%     94.61% # Number of instructions fetched each cycle (Total)
system.switch_cpus3.fetch.nisnDist::4         6693970      0.41%     95.02% # Number of instructions fetched each cycle (Total)
system.switch_cpus3.fetch.nisnDist::5        10237328      0.62%     95.64% # Number of instructions fetched each cycle (Total)
system.switch_cpus3.fetch.nisnDist::6         6404025      0.39%     96.03% # Number of instructions fetched each cycle (Total)
system.switch_cpus3.fetch.nisnDist::7         7976591      0.48%     96.51% # Number of instructions fetched each cycle (Total)
system.switch_cpus3.fetch.nisnDist::8        57659658      3.49%    100.00% # Number of instructions fetched each cycle (Total)
system.switch_cpus3.fetch.nisnDist::overflows            0      0.00%    100.00% # Number of instructions fetched each cycle (Total)
system.switch_cpus3.fetch.nisnDist::min_value            0                       # Number of instructions fetched each cycle (Total)
system.switch_cpus3.fetch.nisnDist::max_value            8                       # Number of instructions fetched each cycle (Total)
system.switch_cpus3.fetch.nisnDist::total   1651244788                       # Number of instructions fetched each cycle (Total)
system.switch_cpus3.fetch.branchRate         0.022266                       # Number of branch fetches per cycle
system.switch_cpus3.fetch.rate               0.217660                       # Number of inst fetches per cycle
system.switch_cpus3.itb.rdAccesses                  0                       # TLB accesses on read requests
system.switch_cpus3.itb.wrAccesses           46311242                       # TLB accesses on write requests
system.switch_cpus3.itb.rdMisses                    0                       # TLB misses on read requests
system.switch_cpus3.itb.wrMisses                  218                       # TLB misses on write requests
system.switch_cpus3.itb.walker.power_state.pwrStateResidencyTicks::UNDEFINED 18769042239930                       # Cumulative time (in ticks) in various power states
system.switch_cpus3.lsq0.forwLoads            1089724                       # Number of loads that had data forwarded from stores
system.switch_cpus3.lsq0.squashedLoads       35921663                       # Number of loads squashed
system.switch_cpus3.lsq0.ignoredResponses         1405                       # Number of memory responses ignored because the instruction is squashed
system.switch_cpus3.lsq0.memOrderViolation         7646                       # Number of memory ordering violations
system.switch_cpus3.lsq0.squashedStores      38936978                       # Number of stores squashed
system.switch_cpus3.lsq0.rescheduledLoads      7164921                       # Number of loads that were rescheduled
system.switch_cpus3.lsq0.blockedByCache          6633                       # Number of times an access to memory failed due to the cache being blocked
system.switch_cpus3.power_state.pwrStateResidencyTicks::OFF 549879998904                       # Cumulative time (in ticks) in various power states
system.switch_cpus3.rename.squashCycles       1688034                       # Number of cycles rename is squashing
system.switch_cpus3.rename.idleCycles        26925656                       # Number of cycles rename is idle
system.switch_cpus3.rename.blockCycles      927061805                       # Number of cycles rename is blocking
system.switch_cpus3.rename.serializeStallCycles            0                       # count of cycles rename stalledfor serializing inst
system.switch_cpus3.rename.runCycles         68944043                       # Number of cycles rename is running
system.switch_cpus3.rename.unblockCycles    626625247                       # Number of cycles rename is unblocking
system.switch_cpus3.rename.renamedInsts     611381169                       # Number of instructions processed by rename
system.switch_cpus3.rename.ROBFullEvents      8535798                       # Number of times rename has blocked due to ROB full
system.switch_cpus3.rename.IQFullEvents     142693618                       # Number of times rename has blocked due to IQ full
system.switch_cpus3.rename.LQFullEvents     280914624                       # Number of times rename has blocked due to LQ full
system.switch_cpus3.rename.SQFullEvents     307702479                       # Number of times rename has blocked due to SQ full
system.switch_cpus3.rename.renamedOperands    624282516                       # Number of destination operands rename has renamed
system.switch_cpus3.rename.lookups         1460437207                       # Number of register rename lookups that rename has made
system.switch_cpus3.rename.intLookups       606377610                       # Number of integer rename lookups
system.switch_cpus3.rename.fpLookups        384939477                       # Number of floating rename lookups
system.switch_cpus3.rename.committedMaps    472517899                       # Number of HB maps that are committed
system.switch_cpus3.rename.undoneMaps       151764390                       # Number of HB maps that are undone due to squashing
system.switch_cpus3.rename.serializing              0                       # count of serializing insts renamed
system.switch_cpus3.rename.tempSerializing            0                       # count of temporary serializing insts renamed
system.switch_cpus3.rename.skidInsts        164599362                       # count of insts added to the skid buffer
system.switch_cpus3.rob.reads              2168118281                       # The number of ROB reads
system.switch_cpus3.rob.writes             1182117833                       # The number of ROB writes
system.switch_cpus3.thread0.numInsts        250000000                       # Number of Instructions committed
system.switch_cpus3.thread0.numOps          446992460                       # Number of Ops committed
system.switch_cpus3.thread0.numMemRefs              0                       # Number of Memory References
system.voltage_domain.voltage                       1                       # Voltage in Volts

---------- End Simulation Statistics   ----------
