Command line:
./runscript_pride.sh mix20 AE.BASELINE.4C 4 2017
Global frequency set at 1000000000000 ticks per second
DRAM config: RowsPerBank: 65536, BanksPerRank: 32, RanksPerChannel: 1
warn: Sockets disabled, not accepting gdb connections
warn: CoherentXBar system.cpu0.mmucache.mmubus has no snooping ports attached!
warn: CoherentXBar system.cpu1.mmucache.mmubus has no snooping ports attached!
warn: CoherentXBar system.cpu2.mmucache.mmubus has no snooping ports attached!
warn: CoherentXBar system.cpu3.mmucache.mmubus has no snooping ports attached!
warn: Checkpoints for file descriptors currently do not work.
warn: Checkpoints for file descriptors currently do not work.
warn: Checkpoints for file descriptors currently do not work.
warn: Checkpoints for file descriptors currently do not work.
gem5 Simulator System.  http://gem5.org
gem5 is copyrighted software; use the --copyright option for details.

gem5 version 20.1.0.5
gem5 compiled Jul 12 2024 12:42:38
gem5 started Jul 23 2024 14:03:16
gem5 executing on a07dda8b130c, pid 98166
command line: /home/user/PrIDE/performance/gem5/build/X86/gem5.opt --outdir=/home/user/PrIDE/performance/gem5/stats/pride_multiprogram_16GBmem_250Mn.SPEC2017.C4/AE.BASELINE.4C/mix20 /home/user/PrIDE/performance/gem5/configs/example/se_rq_spec_config_multicore.py --redirects /lib64=/home/utils/gcc-6.2.0/lib64 --benchmark=mix20 --benchmark_stdout=/home/user/PrIDE/performance/gem5/stats/pride_multiprogram_16GBmem_250Mn.SPEC2017.C4/AE.BASELINE.4C/mix20/mix20.out --benchmark_stderr=/home/user/PrIDE/performance/gem5/stats/pride_multiprogram_16GBmem_250Mn.SPEC2017.C4/AE.BASELINE.4C/mix20/mix20.err --spec-version=2017 --num-cpus=4 --mem-size=16GB --mem-type=DDR5_2400_32x4 --mem-ranks=1 --checkpoint-dir=/home/user/PrIDE/performance/gem5/cpts/multiprogram_16GBmem_25Bn.SPEC2017.C4/mix20-1-ref-x86 --checkpoint-restore=25000000000 --at-instruction --cpu-type DerivO3CPU --caches --l2cache --l1d_size=32kB --l1i_size=32kB --l2_size=256kB --l1d_assoc=8 --l1i_assoc=8 --l2_assoc=16 --maxinsts=250000000 --prog-interval=300Hz

info: Standard input is not a terminal, disabling listeners.
Benchmark- 0   deepsjeng
Selected benchmark
--> deepsjeng
CMD: ['/opt/spec2017/benchspec/CPU/531.deepsjeng_r/run/run_base_refrate_gem5_se-m64.0000/deepsjeng_r_base.gem5_se-m64', '/opt/spec2017/benchspec/CPU/531.deepsjeng_r/run/run_base_refrate_gem5_se-m64.0000/ref.txt']
CWD: /opt/spec2017/benchspec/CPU/531.deepsjeng_r/run/run_base_refrate_gem5_se-m64.0000/
Process stdout file: /home/user/PrIDE/performance/gem5/stats/pride_multiprogram_16GBmem_250Mn.SPEC2017.C4/AE.BASELINE.4C/mix20/mix20.out_0
Process stderr file: /home/user/PrIDE/performance/gem5/stats/pride_multiprogram_16GBmem_250Mn.SPEC2017.C4/AE.BASELINE.4C/mix20/mix20.err_0
Benchmark- 1   mcf
Selected benchmark
--> mcf
CMD: ['/opt/spec2017/benchspec/CPU/505.mcf_r/run/run_base_refrate_gem5_se-m64.0000/mcf_r_base.gem5_se-m64', '/opt/spec2017/benchspec/CPU/505.mcf_r/run/run_base_refrate_gem5_se-m64.0000/inp.in']
CWD: /opt/spec2017/benchspec/CPU/505.mcf_r/run/run_base_refrate_gem5_se-m64.0000/
Process stdout file: /home/user/PrIDE/performance/gem5/stats/pride_multiprogram_16GBmem_250Mn.SPEC2017.C4/AE.BASELINE.4C/mix20/mix20.out_1
Process stderr file: /home/user/PrIDE/performance/gem5/stats/pride_multiprogram_16GBmem_250Mn.SPEC2017.C4/AE.BASELINE.4C/mix20/mix20.err_1
Benchmark- 2   namd
Selected benchmark
--> namd
CMD: ['/opt/spec2017/benchspec/CPU/508.namd_r/run/run_base_refrate_gem5_se-m64.0000/namd_r_base.gem5_se-m64', '--input', '/opt/spec2017/benchspec/CPU/508.namd_r/run/run_base_refrate_gem5_se-m64.0000/apoa1.input', '--output', '/opt/spec2017/benchspec/CPU/508.namd_r/run/run_base_refrate_gem5_se-m64.0000/apoa1.ref.output', '--iterations', '65']
CWD: /opt/spec2017/benchspec/CPU/508.namd_r/run/run_base_refrate_gem5_se-m64.0000/
Process stdout file: /home/user/PrIDE/performance/gem5/stats/pride_multiprogram_16GBmem_250Mn.SPEC2017.C4/AE.BASELINE.4C/mix20/mix20.out_2
Process stderr file: /home/user/PrIDE/performance/gem5/stats/pride_multiprogram_16GBmem_250Mn.SPEC2017.C4/AE.BASELINE.4C/mix20/mix20.err_2
Benchmark- 3   roms
Selected benchmark
--> roms
CMD: ['/opt/spec2017/benchspec/CPU/554.roms_r/run/run_base_refrate_gem5_se-m64.0000/roms_r_base.gem5_se-m64']
CWD: /opt/spec2017/benchspec/CPU/554.roms_r/run/run_base_refrate_gem5_se-m64.0000/
Process stdout file: /home/user/PrIDE/performance/gem5/stats/pride_multiprogram_16GBmem_250Mn.SPEC2017.C4/AE.BASELINE.4C/mix20/mix20.out_3
Process stderr file: /home/user/PrIDE/performance/gem5/stats/pride_multiprogram_16GBmem_250Mn.SPEC2017.C4/AE.BASELINE.4C/mix20/mix20.err_3
Workload-0: 
['/opt/spec2017/benchspec/CPU/531.deepsjeng_r/run/run_base_refrate_gem5_se-m64.0000/deepsjeng_r_base.gem5_se-m64', '/opt/spec2017/benchspec/CPU/531.deepsjeng_r/run/run_base_refrate_gem5_se-m64.0000/ref.txt']
Workload-1: 
['/opt/spec2017/benchspec/CPU/505.mcf_r/run/run_base_refrate_gem5_se-m64.0000/mcf_r_base.gem5_se-m64', '/opt/spec2017/benchspec/CPU/505.mcf_r/run/run_base_refrate_gem5_se-m64.0000/inp.in']
Workload-2: 
['/opt/spec2017/benchspec/CPU/508.namd_r/run/run_base_refrate_gem5_se-m64.0000/namd_r_base.gem5_se-m64', '--input', '/opt/spec2017/benchspec/CPU/508.namd_r/run/run_base_refrate_gem5_se-m64.0000/apoa1.input', '--output', '/opt/spec2017/benchspec/CPU/508.namd_r/run/run_base_refrate_gem5_se-m64.0000/apoa1.ref.output', '--iterations', '65']
Workload-3: 
['/opt/spec2017/benchspec/CPU/554.roms_r/run/run_base_refrate_gem5_se-m64.0000/roms_r_base.gem5_se-m64']
defense_enable:  False  detector:  MG  mitigation:  RRS  threshold:  800
mg_entries:  1700
rrs_tuples:  3400 rrs_swap_delay:  2740ns rit_acc_delay:  1.25ns
Switch at curTick count:10000
warn: membus.master is deprecated. `master` is now called `mem_side_ports`
warn: No dot file generated. Please install pydot to generate the dot file and pdf.
info: Entering event queue @ 13945158484398.  Starting simulation...
warn: PowerState: Already in the requested power state, request ignored
Switched CPUS @ tick 13945158494398
switching cpus
**** REAL SIMULATION ****
info: Entering event queue @ 13945158494398.  Starting simulation...
13948491817731: Event_285: system.switch_cpus3 progress event, total committed:14192674, progress insts committed: 14192674, IPC: 01.41785
13948491817731: Event_284: system.switch_cpus2 progress event, total committed:32791147, progress insts committed: 32791147, IPC: 03.27584
13948491817731: Event_283: system.switch_cpus1 progress event, total committed:11269507, progress insts committed: 11269507, IPC: 01.12582
13948491817731: Event_282: system.switch_cpus0 progress event, total committed:21498037, progress insts committed: 21498037, IPC: 02.14765
13951825151064: Event_282: system.switch_cpus0 progress event, total committed:44024650, progress insts committed: 22526613, IPC: 02.25041
13951825151064: Event_283: system.switch_cpus1 progress event, total committed:22966954, progress insts committed: 11697447, IPC: 01.16857
13951825151064: Event_284: system.switch_cpus2 progress event, total committed:65488600, progress insts committed: 32697453, IPC: 03.26648
13951825151064: Event_285: system.switch_cpus3 progress event, total committed:30409540, progress insts committed: 16216866, IPC: 01.62006
13955158484397: Event_285: system.switch_cpus3 progress event, total committed:41473333, progress insts committed: 11063793, IPC: 01.10527
13955158484397: Event_284: system.switch_cpus2 progress event, total committed:97471117, progress insts committed: 31982517, IPC: 03.19505
13955158484397: Event_283: system.switch_cpus1 progress event, total committed:34530144, progress insts committed: 11563190, IPC: 01.15516
13955158484397: Event_282: system.switch_cpus0 progress event, total committed:65919161, progress insts committed: 21894511, IPC: 02.18726
13958491817730: Event_282: system.switch_cpus0 progress event, total committed:88343556, progress insts committed: 22424395, IPC: 002.2402
13958491817730: Event_283: system.switch_cpus1 progress event, total committed:46187558, progress insts committed: 11657414, IPC: 01.16458
13958491817730: Event_284: system.switch_cpus2 progress event, total committed:129825428, progress insts committed: 32354311, IPC: 003.2322
13958491817730: Event_285: system.switch_cpus3 progress event, total committed:49621220, progress insts committed: 8147887, IPC: 0.813974
13961825151063: Event_285: system.switch_cpus3 progress event, total committed:58195863, progress insts committed: 8574643, IPC: 0.856607
13961825151063: Event_284: system.switch_cpus2 progress event, total committed:163187276, progress insts committed: 33361848, IPC: 03.33285
13961825151063: Event_283: system.switch_cpus1 progress event, total committed:58387713, progress insts committed: 12200155, IPC: 001.2188
13961825151063: Event_282: system.switch_cpus0 progress event, total committed:110825847, progress insts committed: 22482291, IPC: 02.24598
13965158484396: Event_282: system.switch_cpus0 progress event, total committed:133247592, progress insts committed: 22421745, IPC: 02.23993
13965158484396: Event_283: system.switch_cpus1 progress event, total committed:70454335, progress insts committed: 12066622, IPC: 01.20546
13965158484396: Event_284: system.switch_cpus2 progress event, total committed:195928480, progress insts committed: 32741204, IPC: 03.27085
13965158484396: Event_285: system.switch_cpus3 progress event, total committed:65891578, progress insts committed: 7695715, IPC: 0.768802
13968491817729: Event_285: system.switch_cpus3 progress event, total committed:70667991, progress insts committed: 4776413, IPC: 0.477164
13968491817729: Event_284: system.switch_cpus2 progress event, total committed:227576413, progress insts committed: 31647933, IPC: 03.16163
13968491817729: Event_283: system.switch_cpus1 progress event, total committed:81551237, progress insts committed: 11096902, IPC: 01.10858
13968491817729: Event_282: system.switch_cpus0 progress event, total committed:154516366, progress insts committed: 21268774, IPC: 02.12475
13971825151062: Event_282: system.switch_cpus0 progress event, total committed:175674530, progress insts committed: 21158164, IPC: 002.1137
13971825151062: Event_283: system.switch_cpus1 progress event, total committed:92350442, progress insts committed: 10799205, IPC: 01.07884
13971825151062: Event_284: system.switch_cpus2 progress event, total committed:258459288, progress insts committed: 30882875, IPC: 003.0852
13971825151062: Event_285: system.switch_cpus3 progress event, total committed:75311586, progress insts committed: 4643595, IPC: 0.463895
13975158484395: Event_285: system.switch_cpus3 progress event, total committed:80587334, progress insts committed: 5275748, IPC: 0.527047
13975158484395: Event_284: system.switch_cpus2 progress event, total committed:289725329, progress insts committed: 31266041, IPC: 03.12348
13975158484395: Event_283: system.switch_cpus1 progress event, total committed:103816310, progress insts committed: 11465868, IPC: 01.14544
13975158484395: Event_282: system.switch_cpus0 progress event, total committed:196905903, progress insts committed: 21231373, IPC: 02.12101
Exiting @ tick 13975876050084 because a thread reached the max instruction count
