
---------- Begin Simulation Statistics ----------
final_tick                               14978607000066                       # Number of ticks from beginning of simulation (restored from checkpoints and never reset)
host_inst_rate                                 176623                       # Simulator instruction rate (inst/s)
host_mem_usage                               17297960                       # Number of bytes of host memory used
host_op_rate                                   306708                       # Simulator op (including micro ops) rate (op/s)
host_seconds                                  4132.48                       # Real time elapsed on the host
host_tick_rate                                6814501                       # Simulator tick rate (ticks/s)
sim_freq                                 1000000000000                       # Frequency of simulated ticks
sim_insts                                   729892531                       # Number of instructions simulated
sim_ops                                    1267467959                       # Number of ops (including micro ops) simulated
sim_seconds                                  0.028161                       # Number of seconds simulated
sim_ticks                                 28160817993                       # Number of ticks simulated
system.cpu0.Branches                                3                       # Number of branches fetched
system.cpu0.committedInsts                         13                       # Number of instructions committed
system.cpu0.committedOps                           26                       # Number of ops (including micro ops) committed
system.cpu0.idle_fraction                           0                       # Percentage of idle cycles
system.cpu0.l2bus.snoop_filter.hit_multi_requests            0                       # Number of requests hitting in the snoop filter with multiple (>1) holders of the requested data.
system.cpu0.l2bus.snoop_filter.hit_multi_snoops            0                       # Number of snoops hitting in the snoop filter with multiple (>1) holders of the requested data.
system.cpu0.l2bus.snoop_filter.hit_single_requests            1                       # Number of requests hitting in the snoop filter with a single holder of the requested data.
system.cpu0.l2bus.snoop_filter.hit_single_snoops            0                       # Number of snoops hitting in the snoop filter with a single holder of the requested data.
system.cpu0.l2bus.snoop_filter.tot_requests          562                       # Total number of requests made to the snoop filter.
system.cpu0.l2bus.snoop_filter.tot_snoops            0                       # Total number of snoops made to the snoop filter.
system.cpu0.mmucache.mmubus.snoop_filter.hit_multi_requests            0                       # Number of requests hitting in the snoop filter with multiple (>1) holders of the requested data.
system.cpu0.mmucache.mmubus.snoop_filter.hit_multi_snoops            0                       # Number of snoops hitting in the snoop filter with multiple (>1) holders of the requested data.
system.cpu0.mmucache.mmubus.snoop_filter.hit_single_requests            0                       # Number of requests hitting in the snoop filter with a single holder of the requested data.
system.cpu0.mmucache.mmubus.snoop_filter.hit_single_snoops            0                       # Number of snoops hitting in the snoop filter with a single holder of the requested data.
system.cpu0.mmucache.mmubus.snoop_filter.tot_requests            0                       # Total number of requests made to the snoop filter.
system.cpu0.mmucache.mmubus.snoop_filter.tot_snoops            0                       # Total number of snoops made to the snoop filter.
system.cpu0.not_idle_fraction                       1                       # Percentage of non-idle cycles
system.cpu0.numCycles                              30                       # number of cpu cycles simulated
system.cpu0.numWorkItemsCompleted                   0                       # number of work items this cpu completed
system.cpu0.numWorkItemsStarted                     0                       # number of work items this cpu started
system.cpu0.num_busy_cycles                        30                       # Number of busy cycles
system.cpu0.num_cc_register_reads                  12                       # number of times the CC registers were read
system.cpu0.num_cc_register_writes                 10                       # number of times the CC registers were written
system.cpu0.num_conditional_control_insts            2                       # number of instructions that are conditional controls
system.cpu0.num_fp_alu_accesses                     0                       # Number of float alu accesses
system.cpu0.num_fp_insts                            0                       # number of float instructions
system.cpu0.num_fp_register_reads                   0                       # number of times the floating registers were read
system.cpu0.num_fp_register_writes                  0                       # number of times the floating registers were written
system.cpu0.num_func_calls                          0                       # number of times a function call or return occured
system.cpu0.num_idle_cycles                         0                       # Number of idle cycles
system.cpu0.num_int_alu_accesses                   25                       # Number of integer alu accesses
system.cpu0.num_int_insts                          25                       # number of integer instructions
system.cpu0.num_int_register_reads                 43                       # number of times the integer registers were read
system.cpu0.num_int_register_writes                21                       # number of times the integer registers were written
system.cpu0.num_load_insts                          2                       # Number of load instructions
system.cpu0.num_mem_refs                            3                       # number of memory refs
system.cpu0.num_store_insts                         1                       # Number of store instructions
system.cpu0.num_vec_alu_accesses                    0                       # Number of vector alu accesses
system.cpu0.num_vec_insts                           0                       # number of vector instructions
system.cpu0.num_vec_register_reads                  0                       # number of times the vector registers were read
system.cpu0.num_vec_register_writes                 0                       # number of times the vector registers were written
system.cpu0.op_class::No_OpClass                    1      3.85%      3.85% # Class of executed instruction
system.cpu0.op_class::IntAlu                       22     84.62%     88.46% # Class of executed instruction
system.cpu0.op_class::IntMult                       0      0.00%     88.46% # Class of executed instruction
system.cpu0.op_class::IntDiv                        0      0.00%     88.46% # Class of executed instruction
system.cpu0.op_class::FloatAdd                      0      0.00%     88.46% # Class of executed instruction
system.cpu0.op_class::FloatCmp                      0      0.00%     88.46% # Class of executed instruction
system.cpu0.op_class::FloatCvt                      0      0.00%     88.46% # Class of executed instruction
system.cpu0.op_class::FloatMult                     0      0.00%     88.46% # Class of executed instruction
system.cpu0.op_class::FloatMultAcc                  0      0.00%     88.46% # Class of executed instruction
system.cpu0.op_class::FloatDiv                      0      0.00%     88.46% # Class of executed instruction
system.cpu0.op_class::FloatMisc                     0      0.00%     88.46% # Class of executed instruction
system.cpu0.op_class::FloatSqrt                     0      0.00%     88.46% # Class of executed instruction
system.cpu0.op_class::SimdAdd                       0      0.00%     88.46% # Class of executed instruction
system.cpu0.op_class::SimdAddAcc                    0      0.00%     88.46% # Class of executed instruction
system.cpu0.op_class::SimdAlu                       0      0.00%     88.46% # Class of executed instruction
system.cpu0.op_class::SimdCmp                       0      0.00%     88.46% # Class of executed instruction
system.cpu0.op_class::SimdCvt                       0      0.00%     88.46% # Class of executed instruction
system.cpu0.op_class::SimdMisc                      0      0.00%     88.46% # Class of executed instruction
system.cpu0.op_class::SimdMult                      0      0.00%     88.46% # Class of executed instruction
system.cpu0.op_class::SimdMultAcc                   0      0.00%     88.46% # Class of executed instruction
system.cpu0.op_class::SimdShift                     0      0.00%     88.46% # Class of executed instruction
system.cpu0.op_class::SimdShiftAcc                  0      0.00%     88.46% # Class of executed instruction
system.cpu0.op_class::SimdDiv                       0      0.00%     88.46% # Class of executed instruction
system.cpu0.op_class::SimdSqrt                      0      0.00%     88.46% # Class of executed instruction
system.cpu0.op_class::SimdFloatAdd                  0      0.00%     88.46% # Class of executed instruction
system.cpu0.op_class::SimdFloatAlu                  0      0.00%     88.46% # Class of executed instruction
system.cpu0.op_class::SimdFloatCmp                  0      0.00%     88.46% # Class of executed instruction
system.cpu0.op_class::SimdFloatCvt                  0      0.00%     88.46% # Class of executed instruction
system.cpu0.op_class::SimdFloatDiv                  0      0.00%     88.46% # Class of executed instruction
system.cpu0.op_class::SimdFloatMisc                 0      0.00%     88.46% # Class of executed instruction
system.cpu0.op_class::SimdFloatMult                 0      0.00%     88.46% # Class of executed instruction
system.cpu0.op_class::SimdFloatMultAcc              0      0.00%     88.46% # Class of executed instruction
system.cpu0.op_class::SimdFloatSqrt                 0      0.00%     88.46% # Class of executed instruction
system.cpu0.op_class::SimdReduceAdd                 0      0.00%     88.46% # Class of executed instruction
system.cpu0.op_class::SimdReduceAlu                 0      0.00%     88.46% # Class of executed instruction
system.cpu0.op_class::SimdReduceCmp                 0      0.00%     88.46% # Class of executed instruction
system.cpu0.op_class::SimdFloatReduceAdd            0      0.00%     88.46% # Class of executed instruction
system.cpu0.op_class::SimdFloatReduceCmp            0      0.00%     88.46% # Class of executed instruction
system.cpu0.op_class::SimdAes                       0      0.00%     88.46% # Class of executed instruction
system.cpu0.op_class::SimdAesMix                    0      0.00%     88.46% # Class of executed instruction
system.cpu0.op_class::SimdSha1Hash                  0      0.00%     88.46% # Class of executed instruction
system.cpu0.op_class::SimdSha1Hash2                 0      0.00%     88.46% # Class of executed instruction
system.cpu0.op_class::SimdSha256Hash                0      0.00%     88.46% # Class of executed instruction
system.cpu0.op_class::SimdSha256Hash2               0      0.00%     88.46% # Class of executed instruction
system.cpu0.op_class::SimdShaSigma2                 0      0.00%     88.46% # Class of executed instruction
system.cpu0.op_class::SimdShaSigma3                 0      0.00%     88.46% # Class of executed instruction
system.cpu0.op_class::SimdPredAlu                   0      0.00%     88.46% # Class of executed instruction
system.cpu0.op_class::MemRead                       2      7.69%     96.15% # Class of executed instruction
system.cpu0.op_class::MemWrite                      1      3.85%    100.00% # Class of executed instruction
system.cpu0.op_class::FloatMemRead                  0      0.00%    100.00% # Class of executed instruction
system.cpu0.op_class::FloatMemWrite                 0      0.00%    100.00% # Class of executed instruction
system.cpu0.op_class::IprAccess                     0      0.00%    100.00% # Class of executed instruction
system.cpu0.op_class::InstPrefetch                  0      0.00%    100.00% # Class of executed instruction
system.cpu0.op_class::total                        26                       # Class of executed instruction
system.cpu0.workload.numSyscalls                    0                       # Number of system calls
system.cpu1.Branches                                1                       # Number of branches fetched
system.cpu1.committedInsts                         16                       # Number of instructions committed
system.cpu1.committedOps                           22                       # Number of ops (including micro ops) committed
system.cpu1.idle_fraction                           0                       # Percentage of idle cycles
system.cpu1.l2bus.snoop_filter.hit_multi_requests            4                       # Number of requests hitting in the snoop filter with multiple (>1) holders of the requested data.
system.cpu1.l2bus.snoop_filter.hit_multi_snoops            0                       # Number of snoops hitting in the snoop filter with multiple (>1) holders of the requested data.
system.cpu1.l2bus.snoop_filter.hit_single_requests       692304                       # Number of requests hitting in the snoop filter with a single holder of the requested data.
system.cpu1.l2bus.snoop_filter.hit_single_snoops         1312                       # Number of snoops hitting in the snoop filter with a single holder of the requested data.
system.cpu1.l2bus.snoop_filter.tot_requests      1385557                       # Total number of requests made to the snoop filter.
system.cpu1.l2bus.snoop_filter.tot_snoops         1312                       # Total number of snoops made to the snoop filter.
system.cpu1.mmucache.mmubus.snoop_filter.hit_multi_requests            0                       # Number of requests hitting in the snoop filter with multiple (>1) holders of the requested data.
system.cpu1.mmucache.mmubus.snoop_filter.hit_multi_snoops            0                       # Number of snoops hitting in the snoop filter with multiple (>1) holders of the requested data.
system.cpu1.mmucache.mmubus.snoop_filter.hit_single_requests            0                       # Number of requests hitting in the snoop filter with a single holder of the requested data.
system.cpu1.mmucache.mmubus.snoop_filter.hit_single_snoops            0                       # Number of snoops hitting in the snoop filter with a single holder of the requested data.
system.cpu1.mmucache.mmubus.snoop_filter.tot_requests            0                       # Total number of requests made to the snoop filter.
system.cpu1.mmucache.mmubus.snoop_filter.tot_snoops            0                       # Total number of snoops made to the snoop filter.
system.cpu1.not_idle_fraction                       1                       # Percentage of non-idle cycles
system.cpu1.numCycles                              30                       # number of cpu cycles simulated
system.cpu1.numWorkItemsCompleted                   0                       # number of work items this cpu completed
system.cpu1.numWorkItemsStarted                     0                       # number of work items this cpu started
system.cpu1.num_busy_cycles                        30                       # Number of busy cycles
system.cpu1.num_cc_register_reads                   4                       # number of times the CC registers were read
system.cpu1.num_cc_register_writes                  8                       # number of times the CC registers were written
system.cpu1.num_conditional_control_insts            0                       # number of instructions that are conditional controls
system.cpu1.num_fp_alu_accesses                     8                       # Number of float alu accesses
system.cpu1.num_fp_insts                            8                       # number of float instructions
system.cpu1.num_fp_register_reads                   8                       # number of times the floating registers were read
system.cpu1.num_fp_register_writes                  7                       # number of times the floating registers were written
system.cpu1.num_func_calls                          0                       # number of times a function call or return occured
system.cpu1.num_idle_cycles                         0                       # Number of idle cycles
system.cpu1.num_int_alu_accesses                   17                       # Number of integer alu accesses
system.cpu1.num_int_insts                          17                       # number of integer instructions
system.cpu1.num_int_register_reads                 37                       # number of times the integer registers were read
system.cpu1.num_int_register_writes                12                       # number of times the integer registers were written
system.cpu1.num_load_insts                          2                       # Number of load instructions
system.cpu1.num_mem_refs                            4                       # number of memory refs
system.cpu1.num_store_insts                         2                       # Number of store instructions
system.cpu1.num_vec_alu_accesses                    0                       # Number of vector alu accesses
system.cpu1.num_vec_insts                           0                       # number of vector instructions
system.cpu1.num_vec_register_reads                  0                       # number of times the vector registers were read
system.cpu1.num_vec_register_writes                 0                       # number of times the vector registers were written
system.cpu1.op_class::No_OpClass                    0      0.00%      0.00% # Class of executed instruction
system.cpu1.op_class::IntAlu                       14     63.64%     63.64% # Class of executed instruction
system.cpu1.op_class::IntMult                       0      0.00%     63.64% # Class of executed instruction
system.cpu1.op_class::IntDiv                        0      0.00%     63.64% # Class of executed instruction
system.cpu1.op_class::FloatAdd                      2      9.09%     72.73% # Class of executed instruction
system.cpu1.op_class::FloatCmp                      0      0.00%     72.73% # Class of executed instruction
system.cpu1.op_class::FloatCvt                      0      0.00%     72.73% # Class of executed instruction
system.cpu1.op_class::FloatMult                     0      0.00%     72.73% # Class of executed instruction
system.cpu1.op_class::FloatMultAcc                  0      0.00%     72.73% # Class of executed instruction
system.cpu1.op_class::FloatDiv                      0      0.00%     72.73% # Class of executed instruction
system.cpu1.op_class::FloatMisc                     0      0.00%     72.73% # Class of executed instruction
system.cpu1.op_class::FloatSqrt                     0      0.00%     72.73% # Class of executed instruction
system.cpu1.op_class::SimdAdd                       0      0.00%     72.73% # Class of executed instruction
system.cpu1.op_class::SimdAddAcc                    0      0.00%     72.73% # Class of executed instruction
system.cpu1.op_class::SimdAlu                       0      0.00%     72.73% # Class of executed instruction
system.cpu1.op_class::SimdCmp                       0      0.00%     72.73% # Class of executed instruction
system.cpu1.op_class::SimdCvt                       0      0.00%     72.73% # Class of executed instruction
system.cpu1.op_class::SimdMisc                      1      4.55%     77.27% # Class of executed instruction
system.cpu1.op_class::SimdMult                      0      0.00%     77.27% # Class of executed instruction
system.cpu1.op_class::SimdMultAcc                   0      0.00%     77.27% # Class of executed instruction
system.cpu1.op_class::SimdShift                     0      0.00%     77.27% # Class of executed instruction
system.cpu1.op_class::SimdShiftAcc                  0      0.00%     77.27% # Class of executed instruction
system.cpu1.op_class::SimdDiv                       0      0.00%     77.27% # Class of executed instruction
system.cpu1.op_class::SimdSqrt                      0      0.00%     77.27% # Class of executed instruction
system.cpu1.op_class::SimdFloatAdd                  1      4.55%     81.82% # Class of executed instruction
system.cpu1.op_class::SimdFloatAlu                  0      0.00%     81.82% # Class of executed instruction
system.cpu1.op_class::SimdFloatCmp                  0      0.00%     81.82% # Class of executed instruction
system.cpu1.op_class::SimdFloatCvt                  0      0.00%     81.82% # Class of executed instruction
system.cpu1.op_class::SimdFloatDiv                  0      0.00%     81.82% # Class of executed instruction
system.cpu1.op_class::SimdFloatMisc                 0      0.00%     81.82% # Class of executed instruction
system.cpu1.op_class::SimdFloatMult                 0      0.00%     81.82% # Class of executed instruction
system.cpu1.op_class::SimdFloatMultAcc              0      0.00%     81.82% # Class of executed instruction
system.cpu1.op_class::SimdFloatSqrt                 0      0.00%     81.82% # Class of executed instruction
system.cpu1.op_class::SimdReduceAdd                 0      0.00%     81.82% # Class of executed instruction
system.cpu1.op_class::SimdReduceAlu                 0      0.00%     81.82% # Class of executed instruction
system.cpu1.op_class::SimdReduceCmp                 0      0.00%     81.82% # Class of executed instruction
system.cpu1.op_class::SimdFloatReduceAdd            0      0.00%     81.82% # Class of executed instruction
system.cpu1.op_class::SimdFloatReduceCmp            0      0.00%     81.82% # Class of executed instruction
system.cpu1.op_class::SimdAes                       0      0.00%     81.82% # Class of executed instruction
system.cpu1.op_class::SimdAesMix                    0      0.00%     81.82% # Class of executed instruction
system.cpu1.op_class::SimdSha1Hash                  0      0.00%     81.82% # Class of executed instruction
system.cpu1.op_class::SimdSha1Hash2                 0      0.00%     81.82% # Class of executed instruction
system.cpu1.op_class::SimdSha256Hash                0      0.00%     81.82% # Class of executed instruction
system.cpu1.op_class::SimdSha256Hash2               0      0.00%     81.82% # Class of executed instruction
system.cpu1.op_class::SimdShaSigma2                 0      0.00%     81.82% # Class of executed instruction
system.cpu1.op_class::SimdShaSigma3                 0      0.00%     81.82% # Class of executed instruction
system.cpu1.op_class::SimdPredAlu                   0      0.00%     81.82% # Class of executed instruction
system.cpu1.op_class::MemRead                       0      0.00%     81.82% # Class of executed instruction
system.cpu1.op_class::MemWrite                      2      9.09%     90.91% # Class of executed instruction
system.cpu1.op_class::FloatMemRead                  2      9.09%    100.00% # Class of executed instruction
system.cpu1.op_class::FloatMemWrite                 0      0.00%    100.00% # Class of executed instruction
system.cpu1.op_class::IprAccess                     0      0.00%    100.00% # Class of executed instruction
system.cpu1.op_class::InstPrefetch                  0      0.00%    100.00% # Class of executed instruction
system.cpu1.op_class::total                        22                       # Class of executed instruction
system.cpu1.workload.numSyscalls                    0                       # Number of system calls
system.cpu2.Branches                                1                       # Number of branches fetched
system.cpu2.committedInsts                         16                       # Number of instructions committed
system.cpu2.committedOps                           25                       # Number of ops (including micro ops) committed
system.cpu2.idle_fraction                           0                       # Percentage of idle cycles
system.cpu2.l2bus.snoop_filter.hit_multi_requests            3                       # Number of requests hitting in the snoop filter with multiple (>1) holders of the requested data.
system.cpu2.l2bus.snoop_filter.hit_multi_snoops            0                       # Number of snoops hitting in the snoop filter with multiple (>1) holders of the requested data.
system.cpu2.l2bus.snoop_filter.hit_single_requests      2529372                       # Number of requests hitting in the snoop filter with a single holder of the requested data.
system.cpu2.l2bus.snoop_filter.hit_single_snoops          208                       # Number of snoops hitting in the snoop filter with a single holder of the requested data.
system.cpu2.l2bus.snoop_filter.tot_requests      5059436                       # Total number of requests made to the snoop filter.
system.cpu2.l2bus.snoop_filter.tot_snoops          208                       # Total number of snoops made to the snoop filter.
system.cpu2.mmucache.mmubus.snoop_filter.hit_multi_requests            0                       # Number of requests hitting in the snoop filter with multiple (>1) holders of the requested data.
system.cpu2.mmucache.mmubus.snoop_filter.hit_multi_snoops            0                       # Number of snoops hitting in the snoop filter with multiple (>1) holders of the requested data.
system.cpu2.mmucache.mmubus.snoop_filter.hit_single_requests            0                       # Number of requests hitting in the snoop filter with a single holder of the requested data.
system.cpu2.mmucache.mmubus.snoop_filter.hit_single_snoops            0                       # Number of snoops hitting in the snoop filter with a single holder of the requested data.
system.cpu2.mmucache.mmubus.snoop_filter.tot_requests            0                       # Total number of requests made to the snoop filter.
system.cpu2.mmucache.mmubus.snoop_filter.tot_snoops            0                       # Total number of snoops made to the snoop filter.
system.cpu2.not_idle_fraction                       1                       # Percentage of non-idle cycles
system.cpu2.numCycles                              31                       # number of cpu cycles simulated
system.cpu2.numWorkItemsCompleted                   0                       # number of work items this cpu completed
system.cpu2.numWorkItemsStarted                     0                       # number of work items this cpu started
system.cpu2.num_busy_cycles                        31                       # Number of busy cycles
system.cpu2.num_cc_register_reads                   5                       # number of times the CC registers were read
system.cpu2.num_cc_register_writes                  4                       # number of times the CC registers were written
system.cpu2.num_conditional_control_insts            1                       # number of instructions that are conditional controls
system.cpu2.num_fp_alu_accesses                    14                       # Number of float alu accesses
system.cpu2.num_fp_insts                           14                       # number of float instructions
system.cpu2.num_fp_register_reads                  33                       # number of times the floating registers were read
system.cpu2.num_fp_register_writes                 14                       # number of times the floating registers were written
system.cpu2.num_func_calls                          0                       # number of times a function call or return occured
system.cpu2.num_idle_cycles                         0                       # Number of idle cycles
system.cpu2.num_int_alu_accesses                   14                       # Number of integer alu accesses
system.cpu2.num_int_insts                          14                       # number of integer instructions
system.cpu2.num_int_register_reads                 21                       # number of times the integer registers were read
system.cpu2.num_int_register_writes                10                       # number of times the integer registers were written
system.cpu2.num_load_insts                          2                       # Number of load instructions
system.cpu2.num_mem_refs                            2                       # number of memory refs
system.cpu2.num_store_insts                         0                       # Number of store instructions
system.cpu2.num_vec_alu_accesses                    0                       # Number of vector alu accesses
system.cpu2.num_vec_insts                           0                       # number of vector instructions
system.cpu2.num_vec_register_reads                  0                       # number of times the vector registers were read
system.cpu2.num_vec_register_writes                 0                       # number of times the vector registers were written
system.cpu2.op_class::No_OpClass                    0      0.00%      0.00% # Class of executed instruction
system.cpu2.op_class::IntAlu                        9     36.00%     36.00% # Class of executed instruction
system.cpu2.op_class::IntMult                       0      0.00%     36.00% # Class of executed instruction
system.cpu2.op_class::IntDiv                        0      0.00%     36.00% # Class of executed instruction
system.cpu2.op_class::FloatAdd                      0      0.00%     36.00% # Class of executed instruction
system.cpu2.op_class::FloatCmp                      0      0.00%     36.00% # Class of executed instruction
system.cpu2.op_class::FloatCvt                      0      0.00%     36.00% # Class of executed instruction
system.cpu2.op_class::FloatMult                     0      0.00%     36.00% # Class of executed instruction
system.cpu2.op_class::FloatMultAcc                  0      0.00%     36.00% # Class of executed instruction
system.cpu2.op_class::FloatDiv                      0      0.00%     36.00% # Class of executed instruction
system.cpu2.op_class::FloatMisc                     0      0.00%     36.00% # Class of executed instruction
system.cpu2.op_class::FloatSqrt                     0      0.00%     36.00% # Class of executed instruction
system.cpu2.op_class::SimdAdd                       0      0.00%     36.00% # Class of executed instruction
system.cpu2.op_class::SimdAddAcc                    0      0.00%     36.00% # Class of executed instruction
system.cpu2.op_class::SimdAlu                       0      0.00%     36.00% # Class of executed instruction
system.cpu2.op_class::SimdCmp                       0      0.00%     36.00% # Class of executed instruction
system.cpu2.op_class::SimdCvt                       0      0.00%     36.00% # Class of executed instruction
system.cpu2.op_class::SimdMisc                      3     12.00%     48.00% # Class of executed instruction
system.cpu2.op_class::SimdMult                      0      0.00%     48.00% # Class of executed instruction
system.cpu2.op_class::SimdMultAcc                   0      0.00%     48.00% # Class of executed instruction
system.cpu2.op_class::SimdShift                     0      0.00%     48.00% # Class of executed instruction
system.cpu2.op_class::SimdShiftAcc                  0      0.00%     48.00% # Class of executed instruction
system.cpu2.op_class::SimdDiv                       0      0.00%     48.00% # Class of executed instruction
system.cpu2.op_class::SimdSqrt                      0      0.00%     48.00% # Class of executed instruction
system.cpu2.op_class::SimdFloatAdd                  4     16.00%     64.00% # Class of executed instruction
system.cpu2.op_class::SimdFloatAlu                  0      0.00%     64.00% # Class of executed instruction
system.cpu2.op_class::SimdFloatCmp                  0      0.00%     64.00% # Class of executed instruction
system.cpu2.op_class::SimdFloatCvt                  3     12.00%     76.00% # Class of executed instruction
system.cpu2.op_class::SimdFloatDiv                  0      0.00%     76.00% # Class of executed instruction
system.cpu2.op_class::SimdFloatMisc                 0      0.00%     76.00% # Class of executed instruction
system.cpu2.op_class::SimdFloatMult                 4     16.00%     92.00% # Class of executed instruction
system.cpu2.op_class::SimdFloatMultAcc              0      0.00%     92.00% # Class of executed instruction
system.cpu2.op_class::SimdFloatSqrt                 0      0.00%     92.00% # Class of executed instruction
system.cpu2.op_class::SimdReduceAdd                 0      0.00%     92.00% # Class of executed instruction
system.cpu2.op_class::SimdReduceAlu                 0      0.00%     92.00% # Class of executed instruction
system.cpu2.op_class::SimdReduceCmp                 0      0.00%     92.00% # Class of executed instruction
system.cpu2.op_class::SimdFloatReduceAdd            0      0.00%     92.00% # Class of executed instruction
system.cpu2.op_class::SimdFloatReduceCmp            0      0.00%     92.00% # Class of executed instruction
system.cpu2.op_class::SimdAes                       0      0.00%     92.00% # Class of executed instruction
system.cpu2.op_class::SimdAesMix                    0      0.00%     92.00% # Class of executed instruction
system.cpu2.op_class::SimdSha1Hash                  0      0.00%     92.00% # Class of executed instruction
system.cpu2.op_class::SimdSha1Hash2                 0      0.00%     92.00% # Class of executed instruction
system.cpu2.op_class::SimdSha256Hash                0      0.00%     92.00% # Class of executed instruction
system.cpu2.op_class::SimdSha256Hash2               0      0.00%     92.00% # Class of executed instruction
system.cpu2.op_class::SimdShaSigma2                 0      0.00%     92.00% # Class of executed instruction
system.cpu2.op_class::SimdShaSigma3                 0      0.00%     92.00% # Class of executed instruction
system.cpu2.op_class::SimdPredAlu                   0      0.00%     92.00% # Class of executed instruction
system.cpu2.op_class::MemRead                       2      8.00%    100.00% # Class of executed instruction
system.cpu2.op_class::MemWrite                      0      0.00%    100.00% # Class of executed instruction
system.cpu2.op_class::FloatMemRead                  0      0.00%    100.00% # Class of executed instruction
system.cpu2.op_class::FloatMemWrite                 0      0.00%    100.00% # Class of executed instruction
system.cpu2.op_class::IprAccess                     0      0.00%    100.00% # Class of executed instruction
system.cpu2.op_class::InstPrefetch                  0      0.00%    100.00% # Class of executed instruction
system.cpu2.op_class::total                        25                       # Class of executed instruction
system.cpu2.workload.numSyscalls                    0                       # Number of system calls
system.cpu3.Branches                                1                       # Number of branches fetched
system.cpu3.committedInsts                         11                       # Number of instructions committed
system.cpu3.committedOps                           23                       # Number of ops (including micro ops) committed
system.cpu3.idle_fraction                           0                       # Percentage of idle cycles
system.cpu3.l2bus.snoop_filter.hit_multi_requests           56                       # Number of requests hitting in the snoop filter with multiple (>1) holders of the requested data.
system.cpu3.l2bus.snoop_filter.hit_multi_snoops            0                       # Number of snoops hitting in the snoop filter with multiple (>1) holders of the requested data.
system.cpu3.l2bus.snoop_filter.hit_single_requests        84961                       # Number of requests hitting in the snoop filter with a single holder of the requested data.
system.cpu3.l2bus.snoop_filter.hit_single_snoops          358                       # Number of snoops hitting in the snoop filter with a single holder of the requested data.
system.cpu3.l2bus.snoop_filter.tot_requests       170717                       # Total number of requests made to the snoop filter.
system.cpu3.l2bus.snoop_filter.tot_snoops          358                       # Total number of snoops made to the snoop filter.
system.cpu3.mmucache.mmubus.snoop_filter.hit_multi_requests            0                       # Number of requests hitting in the snoop filter with multiple (>1) holders of the requested data.
system.cpu3.mmucache.mmubus.snoop_filter.hit_multi_snoops            0                       # Number of snoops hitting in the snoop filter with multiple (>1) holders of the requested data.
system.cpu3.mmucache.mmubus.snoop_filter.hit_single_requests            0                       # Number of requests hitting in the snoop filter with a single holder of the requested data.
system.cpu3.mmucache.mmubus.snoop_filter.hit_single_snoops            0                       # Number of snoops hitting in the snoop filter with a single holder of the requested data.
system.cpu3.mmucache.mmubus.snoop_filter.tot_requests            0                       # Total number of requests made to the snoop filter.
system.cpu3.mmucache.mmubus.snoop_filter.tot_snoops            0                       # Total number of snoops made to the snoop filter.
system.cpu3.not_idle_fraction                       1                       # Percentage of non-idle cycles
system.cpu3.numCycles                              31                       # number of cpu cycles simulated
system.cpu3.numWorkItemsCompleted                   0                       # number of work items this cpu completed
system.cpu3.numWorkItemsStarted                     0                       # number of work items this cpu started
system.cpu3.num_busy_cycles                        31                       # Number of busy cycles
system.cpu3.num_cc_register_reads                   5                       # number of times the CC registers were read
system.cpu3.num_cc_register_writes                  4                       # number of times the CC registers were written
system.cpu3.num_conditional_control_insts            1                       # number of instructions that are conditional controls
system.cpu3.num_fp_alu_accesses                    12                       # Number of float alu accesses
system.cpu3.num_fp_insts                           12                       # number of float instructions
system.cpu3.num_fp_register_reads                   4                       # number of times the floating registers were read
system.cpu3.num_fp_register_writes                  8                       # number of times the floating registers were written
system.cpu3.num_func_calls                          0                       # number of times a function call or return occured
system.cpu3.num_idle_cycles                         0                       # Number of idle cycles
system.cpu3.num_int_alu_accesses                   23                       # Number of integer alu accesses
system.cpu3.num_int_insts                          23                       # number of integer instructions
system.cpu3.num_int_register_reads                 58                       # number of times the integer registers were read
system.cpu3.num_int_register_writes                 8                       # number of times the integer registers were written
system.cpu3.num_load_insts                         10                       # Number of load instructions
system.cpu3.num_mem_refs                           16                       # number of memory refs
system.cpu3.num_store_insts                         6                       # Number of store instructions
system.cpu3.num_vec_alu_accesses                    0                       # Number of vector alu accesses
system.cpu3.num_vec_insts                           0                       # number of vector instructions
system.cpu3.num_vec_register_reads                  0                       # number of times the vector registers were read
system.cpu3.num_vec_register_writes                 0                       # number of times the vector registers were written
system.cpu3.op_class::No_OpClass                    2      8.00%      8.00% # Class of executed instruction
system.cpu3.op_class::IntAlu                        7     28.00%     36.00% # Class of executed instruction
system.cpu3.op_class::IntMult                       0      0.00%     36.00% # Class of executed instruction
system.cpu3.op_class::IntDiv                        0      0.00%     36.00% # Class of executed instruction
system.cpu3.op_class::FloatAdd                      0      0.00%     36.00% # Class of executed instruction
system.cpu3.op_class::FloatCmp                      0      0.00%     36.00% # Class of executed instruction
system.cpu3.op_class::FloatCvt                      0      0.00%     36.00% # Class of executed instruction
system.cpu3.op_class::FloatMult                     0      0.00%     36.00% # Class of executed instruction
system.cpu3.op_class::FloatMultAcc                  0      0.00%     36.00% # Class of executed instruction
system.cpu3.op_class::FloatDiv                      0      0.00%     36.00% # Class of executed instruction
system.cpu3.op_class::FloatMisc                     0      0.00%     36.00% # Class of executed instruction
system.cpu3.op_class::FloatSqrt                     0      0.00%     36.00% # Class of executed instruction
system.cpu3.op_class::SimdAdd                       0      0.00%     36.00% # Class of executed instruction
system.cpu3.op_class::SimdAddAcc                    0      0.00%     36.00% # Class of executed instruction
system.cpu3.op_class::SimdAlu                       0      0.00%     36.00% # Class of executed instruction
system.cpu3.op_class::SimdCmp                       0      0.00%     36.00% # Class of executed instruction
system.cpu3.op_class::SimdCvt                       0      0.00%     36.00% # Class of executed instruction
system.cpu3.op_class::SimdMisc                      0      0.00%     36.00% # Class of executed instruction
system.cpu3.op_class::SimdMult                      0      0.00%     36.00% # Class of executed instruction
system.cpu3.op_class::SimdMultAcc                   0      0.00%     36.00% # Class of executed instruction
system.cpu3.op_class::SimdShift                     0      0.00%     36.00% # Class of executed instruction
system.cpu3.op_class::SimdShiftAcc                  0      0.00%     36.00% # Class of executed instruction
system.cpu3.op_class::SimdDiv                       0      0.00%     36.00% # Class of executed instruction
system.cpu3.op_class::SimdSqrt                      0      0.00%     36.00% # Class of executed instruction
system.cpu3.op_class::SimdFloatAdd                  0      0.00%     36.00% # Class of executed instruction
system.cpu3.op_class::SimdFloatAlu                  0      0.00%     36.00% # Class of executed instruction
system.cpu3.op_class::SimdFloatCmp                  0      0.00%     36.00% # Class of executed instruction
system.cpu3.op_class::SimdFloatCvt                  0      0.00%     36.00% # Class of executed instruction
system.cpu3.op_class::SimdFloatDiv                  0      0.00%     36.00% # Class of executed instruction
system.cpu3.op_class::SimdFloatMisc                 0      0.00%     36.00% # Class of executed instruction
system.cpu3.op_class::SimdFloatMult                 0      0.00%     36.00% # Class of executed instruction
system.cpu3.op_class::SimdFloatMultAcc              0      0.00%     36.00% # Class of executed instruction
system.cpu3.op_class::SimdFloatSqrt                 0      0.00%     36.00% # Class of executed instruction
system.cpu3.op_class::SimdReduceAdd                 0      0.00%     36.00% # Class of executed instruction
system.cpu3.op_class::SimdReduceAlu                 0      0.00%     36.00% # Class of executed instruction
system.cpu3.op_class::SimdReduceCmp                 0      0.00%     36.00% # Class of executed instruction
system.cpu3.op_class::SimdFloatReduceAdd            0      0.00%     36.00% # Class of executed instruction
system.cpu3.op_class::SimdFloatReduceCmp            0      0.00%     36.00% # Class of executed instruction
system.cpu3.op_class::SimdAes                       0      0.00%     36.00% # Class of executed instruction
system.cpu3.op_class::SimdAesMix                    0      0.00%     36.00% # Class of executed instruction
system.cpu3.op_class::SimdSha1Hash                  0      0.00%     36.00% # Class of executed instruction
system.cpu3.op_class::SimdSha1Hash2                 0      0.00%     36.00% # Class of executed instruction
system.cpu3.op_class::SimdSha256Hash                0      0.00%     36.00% # Class of executed instruction
system.cpu3.op_class::SimdSha256Hash2               0      0.00%     36.00% # Class of executed instruction
system.cpu3.op_class::SimdShaSigma2                 0      0.00%     36.00% # Class of executed instruction
system.cpu3.op_class::SimdShaSigma3                 0      0.00%     36.00% # Class of executed instruction
system.cpu3.op_class::SimdPredAlu                   0      0.00%     36.00% # Class of executed instruction
system.cpu3.op_class::MemRead                       2      8.00%     44.00% # Class of executed instruction
system.cpu3.op_class::MemWrite                      2      8.00%     52.00% # Class of executed instruction
system.cpu3.op_class::FloatMemRead                  8     32.00%     84.00% # Class of executed instruction
system.cpu3.op_class::FloatMemWrite                 4     16.00%    100.00% # Class of executed instruction
system.cpu3.op_class::IprAccess                     0      0.00%    100.00% # Class of executed instruction
system.cpu3.op_class::InstPrefetch                  0      0.00%    100.00% # Class of executed instruction
system.cpu3.op_class::total                        25                       # Class of executed instruction
system.cpu3.workload.numSyscalls                    0                       # Number of system calls
system.l3bus.snoop_filter.hit_multi_requests            0                       # Number of requests hitting in the snoop filter with multiple (>1) holders of the requested data.
system.l3bus.snoop_filter.hit_multi_snoops            0                       # Number of snoops hitting in the snoop filter with multiple (>1) holders of the requested data.
system.l3bus.snoop_filter.hit_single_requests       201139                       # Number of requests hitting in the snoop filter with a single holder of the requested data.
system.l3bus.snoop_filter.hit_single_snoops            0                       # Number of snoops hitting in the snoop filter with a single holder of the requested data.
system.l3bus.snoop_filter.tot_requests         416153                       # Total number of requests made to the snoop filter.
system.l3bus.snoop_filter.tot_snoops                0                       # Total number of snoops made to the snoop filter.
system.membus.snoop_filter.hit_multi_requests            0                       # Number of requests hitting in the snoop filter with multiple (>1) holders of the requested data.
system.membus.snoop_filter.hit_multi_snoops            0                       # Number of snoops hitting in the snoop filter with multiple (>1) holders of the requested data.
system.membus.snoop_filter.hit_single_requests        96990                       # Number of requests hitting in the snoop filter with a single holder of the requested data.
system.membus.snoop_filter.hit_single_snoops            0                       # Number of snoops hitting in the snoop filter with a single holder of the requested data.
system.membus.snoop_filter.tot_requests        273070                       # Total number of requests made to the snoop filter.
system.membus.snoop_filter.tot_snoops               0                       # Total number of snoops made to the snoop filter.
system.switch_cpus0.cc_regfile_reads        146391480                       # number of cc regfile reads
system.switch_cpus0.cc_regfile_writes       151781166                       # number of cc regfile writes
system.switch_cpus0.committedInsts          157286513                       # Number of Instructions Simulated
system.switch_cpus0.committedOps            309240871                       # Number of Ops (including micro ops) Simulated
system.switch_cpus0.cpi                      0.537662                       # CPI: Cycles Per Instruction
system.switch_cpus0.cpi_total                0.537662                       # CPI: Total CPI of All Threads
system.switch_cpus0.fp_regfile_writes              56                       # number of floating regfile writes
system.switch_cpus0.idleCycles                  54661                       # Total number of cycles that the CPU has spent unscheduled due to idling
system.switch_cpus0.iew.branchMispredicts      1604942                       # Number of branch mispredicts detected at execute
system.switch_cpus0.iew.exec_branches        28940695                       # Number of branches executed
system.switch_cpus0.iew.exec_nop                    0                       # number of nop insts executed
system.switch_cpus0.iew.exec_rate            4.297326                       # Inst execution rate
system.switch_cpus0.iew.exec_refs           107489965                       # number of memory reference insts executed
system.switch_cpus0.iew.exec_stores          29094516                       # Number of stores executed
system.switch_cpus0.iew.exec_swp                    0                       # number of swp insts executed
system.switch_cpus0.iew.iewBlockCycles        9803224                       # Number of cycles IEW is blocking
system.switch_cpus0.iew.iewDispLoadInsts     84708872                       # Number of dispatched load instructions
system.switch_cpus0.iew.iewDispNonSpecInsts            0                       # Number of dispatched non-speculative instructions
system.switch_cpus0.iew.iewDispSquashedInsts         8338                       # Number of squashed instructions skipped by dispatch
system.switch_cpus0.iew.iewDispStoreInsts     33444628                       # Number of dispatched store instructions
system.switch_cpus0.iew.iewDispatchedInsts    392459928                       # Number of instructions dispatched to IQ
system.switch_cpus0.iew.iewExecLoadInsts     78395449                       # Number of load instructions executed
system.switch_cpus0.iew.iewExecSquashedInsts      4567081                       # Number of squashed instructions skipped in execute
system.switch_cpus0.iew.iewExecutedInsts    363411940                       # Number of executed instructions
system.switch_cpus0.iew.iewIQFullEvents            29                       # Number of times the IQ has become full, causing a stall
system.switch_cpus0.iew.iewIdleCycles               0                       # Number of cycles IEW is idle
system.switch_cpus0.iew.iewLSQFullEvents         1500                       # Number of times the LSQ has become full, causing a stall
system.switch_cpus0.iew.iewSquashCycles       1325232                       # Number of cycles IEW is squashing
system.switch_cpus0.iew.iewUnblockCycles         1536                       # Number of cycles IEW is unblocking
system.switch_cpus0.iew.memOrderViolationEvents        22664                       # Number of memory order violations
system.switch_cpus0.iew.predictedNotTakenIncorrect       772465                       # Number of branches that were predicted not taken incorrectly
system.switch_cpus0.iew.predictedTakenIncorrect       832477                       # Number of branches that were predicted taken incorrectly
system.switch_cpus0.iew.wb_consumers        406503370                       # num instructions consuming a value
system.switch_cpus0.iew.wb_count            361259421                       # cumulative count of insts written-back
system.switch_cpus0.iew.wb_fanout            0.670898                       # average fanout of values written-back
system.switch_cpus0.iew.wb_producers        272722303                       # num instructions producing a value
system.switch_cpus0.iew.wb_rate              4.271873                       # insts written-back per cycle
system.switch_cpus0.iew.wb_sent             362699071                       # cumulative count of insts sent to commit
system.switch_cpus0.int_regfile_reads       525588145                       # number of integer regfile reads
system.switch_cpus0.int_regfile_writes      304668481                       # number of integer regfile writes
system.switch_cpus0.ipc                      1.859904                       # IPC: Instructions Per Cycle
system.switch_cpus0.ipc_total                1.859904                       # IPC: Total IPC of All Threads
system.switch_cpus0.iq.FU_type_0::No_OpClass       788541      0.21%      0.21% # Type of FU issued
system.switch_cpus0.iq.FU_type_0::IntAlu    255363775     69.40%     69.61% # Type of FU issued
system.switch_cpus0.iq.FU_type_0::IntMult      2145320      0.58%     70.19% # Type of FU issued
system.switch_cpus0.iq.FU_type_0::IntDiv            0      0.00%     70.19% # Type of FU issued
system.switch_cpus0.iq.FU_type_0::FloatAdd            0      0.00%     70.19% # Type of FU issued
system.switch_cpus0.iq.FU_type_0::FloatCmp            0      0.00%     70.19% # Type of FU issued
system.switch_cpus0.iq.FU_type_0::FloatCvt            0      0.00%     70.19% # Type of FU issued
system.switch_cpus0.iq.FU_type_0::FloatMult            0      0.00%     70.19% # Type of FU issued
system.switch_cpus0.iq.FU_type_0::FloatMultAcc            0      0.00%     70.19% # Type of FU issued
system.switch_cpus0.iq.FU_type_0::FloatDiv            0      0.00%     70.19% # Type of FU issued
system.switch_cpus0.iq.FU_type_0::FloatMisc            0      0.00%     70.19% # Type of FU issued
system.switch_cpus0.iq.FU_type_0::FloatSqrt            0      0.00%     70.19% # Type of FU issued
system.switch_cpus0.iq.FU_type_0::SimdAdd            0      0.00%     70.19% # Type of FU issued
system.switch_cpus0.iq.FU_type_0::SimdAddAcc            0      0.00%     70.19% # Type of FU issued
system.switch_cpus0.iq.FU_type_0::SimdAlu            0      0.00%     70.19% # Type of FU issued
system.switch_cpus0.iq.FU_type_0::SimdCmp            0      0.00%     70.19% # Type of FU issued
system.switch_cpus0.iq.FU_type_0::SimdCvt            0      0.00%     70.19% # Type of FU issued
system.switch_cpus0.iq.FU_type_0::SimdMisc            0      0.00%     70.19% # Type of FU issued
system.switch_cpus0.iq.FU_type_0::SimdMult            0      0.00%     70.19% # Type of FU issued
system.switch_cpus0.iq.FU_type_0::SimdMultAcc            0      0.00%     70.19% # Type of FU issued
system.switch_cpus0.iq.FU_type_0::SimdShift            0      0.00%     70.19% # Type of FU issued
system.switch_cpus0.iq.FU_type_0::SimdShiftAcc            0      0.00%     70.19% # Type of FU issued
system.switch_cpus0.iq.FU_type_0::SimdDiv            0      0.00%     70.19% # Type of FU issued
system.switch_cpus0.iq.FU_type_0::SimdSqrt            0      0.00%     70.19% # Type of FU issued
system.switch_cpus0.iq.FU_type_0::SimdFloatAdd            0      0.00%     70.19% # Type of FU issued
system.switch_cpus0.iq.FU_type_0::SimdFloatAlu            0      0.00%     70.19% # Type of FU issued
system.switch_cpus0.iq.FU_type_0::SimdFloatCmp            0      0.00%     70.19% # Type of FU issued
system.switch_cpus0.iq.FU_type_0::SimdFloatCvt            0      0.00%     70.19% # Type of FU issued
system.switch_cpus0.iq.FU_type_0::SimdFloatDiv            0      0.00%     70.19% # Type of FU issued
system.switch_cpus0.iq.FU_type_0::SimdFloatMisc            0      0.00%     70.19% # Type of FU issued
system.switch_cpus0.iq.FU_type_0::SimdFloatMult            0      0.00%     70.19% # Type of FU issued
system.switch_cpus0.iq.FU_type_0::SimdFloatMultAcc            0      0.00%     70.19% # Type of FU issued
system.switch_cpus0.iq.FU_type_0::SimdFloatSqrt            0      0.00%     70.19% # Type of FU issued
system.switch_cpus0.iq.FU_type_0::SimdReduceAdd            0      0.00%     70.19% # Type of FU issued
system.switch_cpus0.iq.FU_type_0::SimdReduceAlu            0      0.00%     70.19% # Type of FU issued
system.switch_cpus0.iq.FU_type_0::SimdReduceCmp            0      0.00%     70.19% # Type of FU issued
system.switch_cpus0.iq.FU_type_0::SimdFloatReduceAdd            0      0.00%     70.19% # Type of FU issued
system.switch_cpus0.iq.FU_type_0::SimdFloatReduceCmp            0      0.00%     70.19% # Type of FU issued
system.switch_cpus0.iq.FU_type_0::SimdAes            0      0.00%     70.19% # Type of FU issued
system.switch_cpus0.iq.FU_type_0::SimdAesMix            0      0.00%     70.19% # Type of FU issued
system.switch_cpus0.iq.FU_type_0::SimdSha1Hash            0      0.00%     70.19% # Type of FU issued
system.switch_cpus0.iq.FU_type_0::SimdSha1Hash2            0      0.00%     70.19% # Type of FU issued
system.switch_cpus0.iq.FU_type_0::SimdSha256Hash            0      0.00%     70.19% # Type of FU issued
system.switch_cpus0.iq.FU_type_0::SimdSha256Hash2            0      0.00%     70.19% # Type of FU issued
system.switch_cpus0.iq.FU_type_0::SimdShaSigma2            0      0.00%     70.19% # Type of FU issued
system.switch_cpus0.iq.FU_type_0::SimdShaSigma3            0      0.00%     70.19% # Type of FU issued
system.switch_cpus0.iq.FU_type_0::SimdPredAlu            0      0.00%     70.19% # Type of FU issued
system.switch_cpus0.iq.FU_type_0::MemRead     80057411     21.76%     91.95% # Type of FU issued
system.switch_cpus0.iq.FU_type_0::MemWrite     29623981      8.05%    100.00% # Type of FU issued
system.switch_cpus0.iq.FU_type_0::FloatMemRead            0      0.00%    100.00% # Type of FU issued
system.switch_cpus0.iq.FU_type_0::FloatMemWrite            0      0.00%    100.00% # Type of FU issued
system.switch_cpus0.iq.FU_type_0::IprAccess            0      0.00%    100.00% # Type of FU issued
system.switch_cpus0.iq.FU_type_0::InstPrefetch            0      0.00%    100.00% # Type of FU issued
system.switch_cpus0.iq.FU_type_0::total     367979028                       # Type of FU issued
system.switch_cpus0.iq.fp_alu_accesses              0                       # Number of floating point alu accesses
system.switch_cpus0.iq.fp_inst_queue_reads            0                       # Number of floating instruction queue reads
system.switch_cpus0.iq.fp_inst_queue_wakeup_accesses            0                       # Number of floating instruction queue wakeup accesses
system.switch_cpus0.iq.fp_inst_queue_writes            0                       # Number of floating instruction queue writes
system.switch_cpus0.iq.fu_busy_cnt           11181687                       # FU busy when requested
system.switch_cpus0.iq.fu_busy_rate          0.030387                       # FU busy rate (busy events/executed inst)
system.switch_cpus0.iq.fu_full::No_OpClass            0      0.00%      0.00% # attempts to use FU when none available
system.switch_cpus0.iq.fu_full::IntAlu        7043812     62.99%     62.99% # attempts to use FU when none available
system.switch_cpus0.iq.fu_full::IntMult             0      0.00%     62.99% # attempts to use FU when none available
system.switch_cpus0.iq.fu_full::IntDiv              0      0.00%     62.99% # attempts to use FU when none available
system.switch_cpus0.iq.fu_full::FloatAdd            0      0.00%     62.99% # attempts to use FU when none available
system.switch_cpus0.iq.fu_full::FloatCmp            0      0.00%     62.99% # attempts to use FU when none available
system.switch_cpus0.iq.fu_full::FloatCvt            0      0.00%     62.99% # attempts to use FU when none available
system.switch_cpus0.iq.fu_full::FloatMult            0      0.00%     62.99% # attempts to use FU when none available
system.switch_cpus0.iq.fu_full::FloatMultAcc            0      0.00%     62.99% # attempts to use FU when none available
system.switch_cpus0.iq.fu_full::FloatDiv            0      0.00%     62.99% # attempts to use FU when none available
system.switch_cpus0.iq.fu_full::FloatMisc            0      0.00%     62.99% # attempts to use FU when none available
system.switch_cpus0.iq.fu_full::FloatSqrt            0      0.00%     62.99% # attempts to use FU when none available
system.switch_cpus0.iq.fu_full::SimdAdd             0      0.00%     62.99% # attempts to use FU when none available
system.switch_cpus0.iq.fu_full::SimdAddAcc            0      0.00%     62.99% # attempts to use FU when none available
system.switch_cpus0.iq.fu_full::SimdAlu             0      0.00%     62.99% # attempts to use FU when none available
system.switch_cpus0.iq.fu_full::SimdCmp             0      0.00%     62.99% # attempts to use FU when none available
system.switch_cpus0.iq.fu_full::SimdCvt             0      0.00%     62.99% # attempts to use FU when none available
system.switch_cpus0.iq.fu_full::SimdMisc            0      0.00%     62.99% # attempts to use FU when none available
system.switch_cpus0.iq.fu_full::SimdMult            0      0.00%     62.99% # attempts to use FU when none available
system.switch_cpus0.iq.fu_full::SimdMultAcc            0      0.00%     62.99% # attempts to use FU when none available
system.switch_cpus0.iq.fu_full::SimdShift            0      0.00%     62.99% # attempts to use FU when none available
system.switch_cpus0.iq.fu_full::SimdShiftAcc            0      0.00%     62.99% # attempts to use FU when none available
system.switch_cpus0.iq.fu_full::SimdDiv             0      0.00%     62.99% # attempts to use FU when none available
system.switch_cpus0.iq.fu_full::SimdSqrt            0      0.00%     62.99% # attempts to use FU when none available
system.switch_cpus0.iq.fu_full::SimdFloatAdd            0      0.00%     62.99% # attempts to use FU when none available
system.switch_cpus0.iq.fu_full::SimdFloatAlu            0      0.00%     62.99% # attempts to use FU when none available
system.switch_cpus0.iq.fu_full::SimdFloatCmp            0      0.00%     62.99% # attempts to use FU when none available
system.switch_cpus0.iq.fu_full::SimdFloatCvt            0      0.00%     62.99% # attempts to use FU when none available
system.switch_cpus0.iq.fu_full::SimdFloatDiv            0      0.00%     62.99% # attempts to use FU when none available
system.switch_cpus0.iq.fu_full::SimdFloatMisc            0      0.00%     62.99% # attempts to use FU when none available
system.switch_cpus0.iq.fu_full::SimdFloatMult            0      0.00%     62.99% # attempts to use FU when none available
system.switch_cpus0.iq.fu_full::SimdFloatMultAcc            0      0.00%     62.99% # attempts to use FU when none available
system.switch_cpus0.iq.fu_full::SimdFloatSqrt            0      0.00%     62.99% # attempts to use FU when none available
system.switch_cpus0.iq.fu_full::SimdReduceAdd            0      0.00%     62.99% # attempts to use FU when none available
system.switch_cpus0.iq.fu_full::SimdReduceAlu            0      0.00%     62.99% # attempts to use FU when none available
system.switch_cpus0.iq.fu_full::SimdReduceCmp            0      0.00%     62.99% # attempts to use FU when none available
system.switch_cpus0.iq.fu_full::SimdFloatReduceAdd            0      0.00%     62.99% # attempts to use FU when none available
system.switch_cpus0.iq.fu_full::SimdFloatReduceCmp            0      0.00%     62.99% # attempts to use FU when none available
system.switch_cpus0.iq.fu_full::SimdAes             0      0.00%     62.99% # attempts to use FU when none available
system.switch_cpus0.iq.fu_full::SimdAesMix            0      0.00%     62.99% # attempts to use FU when none available
system.switch_cpus0.iq.fu_full::SimdSha1Hash            0      0.00%     62.99% # attempts to use FU when none available
system.switch_cpus0.iq.fu_full::SimdSha1Hash2            0      0.00%     62.99% # attempts to use FU when none available
system.switch_cpus0.iq.fu_full::SimdSha256Hash            0      0.00%     62.99% # attempts to use FU when none available
system.switch_cpus0.iq.fu_full::SimdSha256Hash2            0      0.00%     62.99% # attempts to use FU when none available
system.switch_cpus0.iq.fu_full::SimdShaSigma2            0      0.00%     62.99% # attempts to use FU when none available
system.switch_cpus0.iq.fu_full::SimdShaSigma3            0      0.00%     62.99% # attempts to use FU when none available
system.switch_cpus0.iq.fu_full::SimdPredAlu            0      0.00%     62.99% # attempts to use FU when none available
system.switch_cpus0.iq.fu_full::MemRead       3430402     30.68%     93.67% # attempts to use FU when none available
system.switch_cpus0.iq.fu_full::MemWrite       707473      6.33%    100.00% # attempts to use FU when none available
system.switch_cpus0.iq.fu_full::FloatMemRead            0      0.00%    100.00% # attempts to use FU when none available
system.switch_cpus0.iq.fu_full::FloatMemWrite            0      0.00%    100.00% # attempts to use FU when none available
system.switch_cpus0.iq.fu_full::IprAccess            0      0.00%    100.00% # attempts to use FU when none available
system.switch_cpus0.iq.fu_full::InstPrefetch            0      0.00%    100.00% # attempts to use FU when none available
system.switch_cpus0.iq.int_alu_accesses     378372174                       # Number of integer alu accesses
system.switch_cpus0.iq.int_inst_queue_reads    832476403                       # Number of integer instruction queue reads
system.switch_cpus0.iq.int_inst_queue_wakeup_accesses    361259421                       # Number of integer instruction queue wakeup accesses
system.switch_cpus0.iq.int_inst_queue_writes    475700876                       # Number of integer instruction queue writes
system.switch_cpus0.iq.iqInstsAdded         392459928                       # Number of instructions added to the IQ (excludes non-spec)
system.switch_cpus0.iq.iqInstsIssued        367979028                       # Number of instructions issued
system.switch_cpus0.iq.iqSquashedInstsExamined     83218949                       # Number of squashed instructions iterated over during squash; mainly for profiling
system.switch_cpus0.iq.iqSquashedInstsIssued       824338                       # Number of squashed instructions issued
system.switch_cpus0.iq.iqSquashedOperandsExamined    106357537                       # Number of squashed operands that are examined and possibly removed from graph
system.switch_cpus0.iq.issued_per_cycle::samples     84512329                       # Number of insts issued each cycle
system.switch_cpus0.iq.issued_per_cycle::mean     4.354146                       # Number of insts issued each cycle
system.switch_cpus0.iq.issued_per_cycle::stdev     2.812182                       # Number of insts issued each cycle
system.switch_cpus0.iq.issued_per_cycle::underflows            0      0.00%      0.00% # Number of insts issued each cycle
system.switch_cpus0.iq.issued_per_cycle::0     17437431     20.63%     20.63% # Number of insts issued each cycle
system.switch_cpus0.iq.issued_per_cycle::1      2420580      2.86%     23.50% # Number of insts issued each cycle
system.switch_cpus0.iq.issued_per_cycle::2      3547614      4.20%     27.69% # Number of insts issued each cycle
system.switch_cpus0.iq.issued_per_cycle::3      5700875      6.75%     34.44% # Number of insts issued each cycle
system.switch_cpus0.iq.issued_per_cycle::4      8374482      9.91%     44.35% # Number of insts issued each cycle
system.switch_cpus0.iq.issued_per_cycle::5      9436233     11.17%     55.52% # Number of insts issued each cycle
system.switch_cpus0.iq.issued_per_cycle::6     13938213     16.49%     72.01% # Number of insts issued each cycle
system.switch_cpus0.iq.issued_per_cycle::7     12202984     14.44%     86.45% # Number of insts issued each cycle
system.switch_cpus0.iq.issued_per_cycle::8     11453917     13.55%    100.00% # Number of insts issued each cycle
system.switch_cpus0.iq.issued_per_cycle::overflows            0      0.00%    100.00% # Number of insts issued each cycle
system.switch_cpus0.iq.issued_per_cycle::min_value            0                       # Number of insts issued each cycle
system.switch_cpus0.iq.issued_per_cycle::max_value            8                       # Number of insts issued each cycle
system.switch_cpus0.iq.issued_per_cycle::total     84512329                       # Number of insts issued each cycle
system.switch_cpus0.iq.rate                  4.351332                       # Inst issue rate
system.switch_cpus0.iq.vec_alu_accesses             0                       # Number of vector alu accesses
system.switch_cpus0.iq.vec_inst_queue_reads            0                       # Number of vector instruction queue reads
system.switch_cpus0.iq.vec_inst_queue_wakeup_accesses            0                       # Number of vector instruction queue wakeup accesses
system.switch_cpus0.iq.vec_inst_queue_writes            0                       # Number of vector instruction queue writes
system.switch_cpus0.memDep0.conflictingLoads     16913758                       # Number of conflicting loads.
system.switch_cpus0.memDep0.conflictingStores     10245240                       # Number of conflicting stores.
system.switch_cpus0.memDep0.insertedLoads     84708872                       # Number of loads inserted to the mem dependence unit.
system.switch_cpus0.memDep0.insertedStores     33444628                       # Number of stores inserted to the mem dependence unit.
system.switch_cpus0.misc_regfile_reads      174406701                       # number of misc regfile reads
system.switch_cpus0.misc_regfile_writes             1                       # number of misc regfile writes
system.switch_cpus0.numCycles                84566990                       # number of cpu cycles simulated
system.switch_cpus0.numWorkItemsCompleted            0                       # number of work items this cpu completed
system.switch_cpus0.numWorkItemsStarted             0                       # number of work items this cpu started
system.switch_cpus0.timesIdled                    233                       # Number of times that the entire CPU went into an idle state and unscheduled itself
system.switch_cpus1.cc_regfile_reads        111948522                       # number of cc regfile reads
system.switch_cpus1.cc_regfile_writes        75541477                       # number of cc regfile writes
system.switch_cpus1.committedInsts          226347917                       # Number of Instructions Simulated
system.switch_cpus1.committedOps            395369445                       # Number of Ops (including micro ops) Simulated
system.switch_cpus1.cpi                      0.373615                       # CPI: Cycles Per Instruction
system.switch_cpus1.cpi_total                0.373615                       # CPI: Total CPI of All Threads
system.switch_cpus1.fp_regfile_reads        311784979                       # number of floating regfile reads
system.switch_cpus1.fp_regfile_writes       171138460                       # number of floating regfile writes
system.switch_cpus1.idleCycles                 102159                       # Total number of cycles that the CPU has spent unscheduled due to idling
system.switch_cpus1.iew.branchMispredicts         3728                       # Number of branch mispredicts detected at execute
system.switch_cpus1.iew.exec_branches        24095614                       # Number of branches executed
system.switch_cpus1.iew.exec_nop                    0                       # number of nop insts executed
system.switch_cpus1.iew.exec_rate            4.676632                       # Inst execution rate
system.switch_cpus1.iew.exec_refs            79264972                       # number of memory reference insts executed
system.switch_cpus1.iew.exec_stores          21111158                       # Number of stores executed
system.switch_cpus1.iew.exec_swp                    0                       # number of swp insts executed
system.switch_cpus1.iew.iewBlockCycles         982721                       # Number of cycles IEW is blocking
system.switch_cpus1.iew.iewDispLoadInsts     58167719                       # Number of dispatched load instructions
system.switch_cpus1.iew.iewDispNonSpecInsts            3                       # Number of dispatched non-speculative instructions
system.switch_cpus1.iew.iewDispSquashedInsts          952                       # Number of squashed instructions skipped by dispatch
system.switch_cpus1.iew.iewDispStoreInsts     21124904                       # Number of dispatched store instructions
system.switch_cpus1.iew.iewDispatchedInsts    395585689                       # Number of instructions dispatched to IQ
system.switch_cpus1.iew.iewExecLoadInsts     58153814                       # Number of load instructions executed
system.switch_cpus1.iew.iewExecSquashedInsts        13941                       # Number of squashed instructions skipped in execute
system.switch_cpus1.iew.iewExecutedInsts    395488703                       # Number of executed instructions
system.switch_cpus1.iew.iewIQFullEvents          8638                       # Number of times the IQ has become full, causing a stall
system.switch_cpus1.iew.iewIdleCycles               0                       # Number of cycles IEW is idle
system.switch_cpus1.iew.iewLSQFullEvents      1414820                       # Number of times the LSQ has become full, causing a stall
system.switch_cpus1.iew.iewSquashCycles          5661                       # Number of cycles IEW is squashing
system.switch_cpus1.iew.iewUnblockCycles      1430780                       # Number of cycles IEW is unblocking
system.switch_cpus1.iew.memOrderViolationEvents         2443                       # Number of memory order violations
system.switch_cpus1.iew.predictedNotTakenIncorrect         2307                       # Number of branches that were predicted not taken incorrectly
system.switch_cpus1.iew.predictedTakenIncorrect         1421                       # Number of branches that were predicted taken incorrectly
system.switch_cpus1.iew.wb_consumers        523372890                       # num instructions consuming a value
system.switch_cpus1.iew.wb_count            395478882                       # cumulative count of insts written-back
system.switch_cpus1.iew.wb_fanout            0.577699                       # average fanout of values written-back
system.switch_cpus1.iew.wb_producers        302352122                       # num instructions producing a value
system.switch_cpus1.iew.wb_rate              4.676516                       # insts written-back per cycle
system.switch_cpus1.iew.wb_sent             395482732                       # cumulative count of insts sent to commit
system.switch_cpus1.int_regfile_reads       353306572                       # number of integer regfile reads
system.switch_cpus1.int_regfile_writes      172222953                       # number of integer regfile writes
system.switch_cpus1.ipc                      2.676552                       # IPC: Instructions Per Cycle
system.switch_cpus1.ipc_total                2.676552                       # IPC: Total IPC of All Threads
system.switch_cpus1.iq.FU_type_0::No_OpClass         4616      0.00%      0.00% # Type of FU issued
system.switch_cpus1.iq.FU_type_0::IntAlu    212374161     53.70%     53.70% # Type of FU issued
system.switch_cpus1.iq.FU_type_0::IntMult        13302      0.00%     53.70% # Type of FU issued
system.switch_cpus1.iq.FU_type_0::IntDiv            0      0.00%     53.70% # Type of FU issued
system.switch_cpus1.iq.FU_type_0::FloatAdd     18385015      4.65%     58.35% # Type of FU issued
system.switch_cpus1.iq.FU_type_0::FloatCmp            0      0.00%     58.35% # Type of FU issued
system.switch_cpus1.iq.FU_type_0::FloatCvt           10      0.00%     58.35% # Type of FU issued
system.switch_cpus1.iq.FU_type_0::FloatMult            0      0.00%     58.35% # Type of FU issued
system.switch_cpus1.iq.FU_type_0::FloatMultAcc            0      0.00%     58.35% # Type of FU issued
system.switch_cpus1.iq.FU_type_0::FloatDiv            0      0.00%     58.35% # Type of FU issued
system.switch_cpus1.iq.FU_type_0::FloatMisc            0      0.00%     58.35% # Type of FU issued
system.switch_cpus1.iq.FU_type_0::FloatSqrt            0      0.00%     58.35% # Type of FU issued
system.switch_cpus1.iq.FU_type_0::SimdAdd            0      0.00%     58.35% # Type of FU issued
system.switch_cpus1.iq.FU_type_0::SimdAddAcc            0      0.00%     58.35% # Type of FU issued
system.switch_cpus1.iq.FU_type_0::SimdAlu     11901174      3.01%     61.36% # Type of FU issued
system.switch_cpus1.iq.FU_type_0::SimdCmp            0      0.00%     61.36% # Type of FU issued
system.switch_cpus1.iq.FU_type_0::SimdCvt            0      0.00%     61.36% # Type of FU issued
system.switch_cpus1.iq.FU_type_0::SimdMisc      6901417      1.74%     63.10% # Type of FU issued
system.switch_cpus1.iq.FU_type_0::SimdMult            0      0.00%     63.10% # Type of FU issued
system.switch_cpus1.iq.FU_type_0::SimdMultAcc            0      0.00%     63.10% # Type of FU issued
system.switch_cpus1.iq.FU_type_0::SimdShift            0      0.00%     63.10% # Type of FU issued
system.switch_cpus1.iq.FU_type_0::SimdShiftAcc            0      0.00%     63.10% # Type of FU issued
system.switch_cpus1.iq.FU_type_0::SimdDiv            0      0.00%     63.10% # Type of FU issued
system.switch_cpus1.iq.FU_type_0::SimdSqrt            0      0.00%     63.10% # Type of FU issued
system.switch_cpus1.iq.FU_type_0::SimdFloatAdd     33497462      8.47%     71.57% # Type of FU issued
system.switch_cpus1.iq.FU_type_0::SimdFloatAlu            0      0.00%     71.57% # Type of FU issued
system.switch_cpus1.iq.FU_type_0::SimdFloatCmp       143185      0.04%     71.61% # Type of FU issued
system.switch_cpus1.iq.FU_type_0::SimdFloatCvt      7853628      1.99%     73.60% # Type of FU issued
system.switch_cpus1.iq.FU_type_0::SimdFloatDiv      2289540      0.58%     74.17% # Type of FU issued
system.switch_cpus1.iq.FU_type_0::SimdFloatMisc            0      0.00%     74.17% # Type of FU issued
system.switch_cpus1.iq.FU_type_0::SimdFloatMult     22644616      5.73%     79.90% # Type of FU issued
system.switch_cpus1.iq.FU_type_0::SimdFloatMultAcc            0      0.00%     79.90% # Type of FU issued
system.switch_cpus1.iq.FU_type_0::SimdFloatSqrt       223238      0.06%     79.96% # Type of FU issued
system.switch_cpus1.iq.FU_type_0::SimdReduceAdd            0      0.00%     79.96% # Type of FU issued
system.switch_cpus1.iq.FU_type_0::SimdReduceAlu            0      0.00%     79.96% # Type of FU issued
system.switch_cpus1.iq.FU_type_0::SimdReduceCmp            0      0.00%     79.96% # Type of FU issued
system.switch_cpus1.iq.FU_type_0::SimdFloatReduceAdd            0      0.00%     79.96% # Type of FU issued
system.switch_cpus1.iq.FU_type_0::SimdFloatReduceCmp            0      0.00%     79.96% # Type of FU issued
system.switch_cpus1.iq.FU_type_0::SimdAes            0      0.00%     79.96% # Type of FU issued
system.switch_cpus1.iq.FU_type_0::SimdAesMix            0      0.00%     79.96% # Type of FU issued
system.switch_cpus1.iq.FU_type_0::SimdSha1Hash            0      0.00%     79.96% # Type of FU issued
system.switch_cpus1.iq.FU_type_0::SimdSha1Hash2            0      0.00%     79.96% # Type of FU issued
[...]
system.switch_cpus3.commit.numCommittedDist::0     28383250     39.51%     39.51% # Number of insts commited each cycle
system.switch_cpus3.commit.numCommittedDist::1     16777649     23.36%     62.87% # Number of insts commited each cycle
system.switch_cpus3.commit.numCommittedDist::2      3717691      5.18%     68.05% # Number of insts commited each cycle
system.switch_cpus3.commit.numCommittedDist::3      9538827     13.28%     81.33% # Number of insts commited each cycle
system.switch_cpus3.commit.numCommittedDist::4      3212987      4.47%     85.80% # Number of insts commited each cycle
system.switch_cpus3.commit.numCommittedDist::5      1772077      2.47%     88.27% # Number of insts commited each cycle
system.switch_cpus3.commit.numCommittedDist::6       786359      1.09%     89.36% # Number of insts commited each cycle
system.switch_cpus3.commit.numCommittedDist::7       681186      0.95%     90.31% # Number of insts commited each cycle
system.switch_cpus3.commit.numCommittedDist::8      6961724      9.69%    100.00% # Number of insts commited each cycle
system.switch_cpus3.commit.numCommittedDist::overflows            0      0.00%    100.00% # Number of insts commited each cycle
system.switch_cpus3.commit.numCommittedDist::min_value            0                       # Number of insts commited each cycle
system.switch_cpus3.commit.numCommittedDist::max_value            8                       # Number of insts commited each cycle
system.switch_cpus3.commit.numCommittedDist::total     71831750                       # Number of insts commited each cycle
system.switch_cpus3.commit.instsCommitted     96258045                       # Number of instructions committed
system.switch_cpus3.commit.opsCommitted     139722093                       # Number of ops (including micro ops) committed
system.switch_cpus3.commit.memRefs           20522969                       # Number of memory references committed
system.switch_cpus3.commit.loads             14318032                       # Number of loads committed
system.switch_cpus3.commit.amos                     0                       # Number of atomic instructions committed
system.switch_cpus3.commit.membars                  0                       # Number of memory barriers committed
system.switch_cpus3.commit.branches          11430034                       # Number of branches committed
system.switch_cpus3.commit.vector                   0                       # Number of committed Vector instructions.
system.switch_cpus3.commit.floating            503014                       # Number of committed floating point instructions.
system.switch_cpus3.commit.integer          139721563                       # Number of committed integer instructions.
system.switch_cpus3.commit.functionCalls        28128                       # Number of function calls committed.
system.switch_cpus3.commit.committedInstType_0::No_OpClass          245      0.00%      0.00% # Class of committed instruction
system.switch_cpus3.commit.committedInstType_0::IntAlu    115746342     82.84%     82.84% # Class of committed instruction
system.switch_cpus3.commit.committedInstType_0::IntMult      3452537      2.47%     85.31% # Class of committed instruction
system.switch_cpus3.commit.committedInstType_0::IntDiv            0      0.00%     85.31% # Class of committed instruction
system.switch_cpus3.commit.committedInstType_0::FloatAdd            0      0.00%     85.31% # Class of committed instruction
system.switch_cpus3.commit.committedInstType_0::FloatCmp            0      0.00%     85.31% # Class of committed instruction
system.switch_cpus3.commit.committedInstType_0::FloatCvt            0      0.00%     85.31% # Class of committed instruction
system.switch_cpus3.commit.committedInstType_0::FloatMult            0      0.00%     85.31% # Class of committed instruction
system.switch_cpus3.commit.committedInstType_0::FloatMultAcc            0      0.00%     85.31% # Class of committed instruction
system.switch_cpus3.commit.committedInstType_0::FloatDiv            0      0.00%     85.31% # Class of committed instruction
system.switch_cpus3.commit.committedInstType_0::FloatMisc            0      0.00%     85.31% # Class of committed instruction
system.switch_cpus3.commit.committedInstType_0::FloatSqrt            0      0.00%     85.31% # Class of committed instruction
system.switch_cpus3.commit.committedInstType_0::SimdAdd            0      0.00%     85.31% # Class of committed instruction
system.switch_cpus3.commit.committedInstType_0::SimdAddAcc            0      0.00%     85.31% # Class of committed instruction
system.switch_cpus3.commit.committedInstType_0::SimdAlu            0      0.00%     85.31% # Class of committed instruction
system.switch_cpus3.commit.committedInstType_0::SimdCmp            0      0.00%     85.31% # Class of committed instruction
system.switch_cpus3.commit.committedInstType_0::SimdCvt            0      0.00%     85.31% # Class of committed instruction
system.switch_cpus3.commit.committedInstType_0::SimdMisc            0      0.00%     85.31% # Class of committed instruction
system.switch_cpus3.commit.committedInstType_0::SimdMult            0      0.00%     85.31% # Class of committed instruction
system.switch_cpus3.commit.committedInstType_0::SimdMultAcc            0      0.00%     85.31% # Class of committed instruction
system.switch_cpus3.commit.committedInstType_0::SimdShift            0      0.00%     85.31% # Class of committed instruction
system.switch_cpus3.commit.committedInstType_0::SimdShiftAcc            0      0.00%     85.31% # Class of committed instruction
system.switch_cpus3.commit.committedInstType_0::SimdDiv            0      0.00%     85.31% # Class of committed instruction
system.switch_cpus3.commit.committedInstType_0::SimdSqrt            0      0.00%     85.31% # Class of committed instruction
system.switch_cpus3.commit.committedInstType_0::SimdFloatAdd            0      0.00%     85.31% # Class of committed instruction
system.switch_cpus3.commit.committedInstType_0::SimdFloatAlu            0      0.00%     85.31% # Class of committed instruction
system.switch_cpus3.commit.committedInstType_0::SimdFloatCmp            0      0.00%     85.31% # Class of committed instruction
system.switch_cpus3.commit.committedInstType_0::SimdFloatCvt            0      0.00%     85.31% # Class of committed instruction
system.switch_cpus3.commit.committedInstType_0::SimdFloatDiv            0      0.00%     85.31% # Class of committed instruction
system.switch_cpus3.commit.committedInstType_0::SimdFloatMisc            0      0.00%     85.31% # Class of committed instruction
system.switch_cpus3.commit.committedInstType_0::SimdFloatMult            0      0.00%     85.31% # Class of committed instruction
system.switch_cpus3.commit.committedInstType_0::SimdFloatMultAcc            0      0.00%     85.31% # Class of committed instruction
system.switch_cpus3.commit.committedInstType_0::SimdFloatSqrt            0      0.00%     85.31% # Class of committed instruction
system.switch_cpus3.commit.committedInstType_0::SimdReduceAdd            0      0.00%     85.31% # Class of committed instruction
system.switch_cpus3.commit.committedInstType_0::SimdReduceAlu            0      0.00%     85.31% # Class of committed instruction
system.switch_cpus3.commit.committedInstType_0::SimdReduceCmp            0      0.00%     85.31% # Class of committed instruction
system.switch_cpus3.commit.committedInstType_0::SimdFloatReduceAdd            0      0.00%     85.31% # Class of committed instruction
system.switch_cpus3.commit.committedInstType_0::SimdFloatReduceCmp            0      0.00%     85.31% # Class of committed instruction
system.switch_cpus3.commit.committedInstType_0::SimdAes            0      0.00%     85.31% # Class of committed instruction
system.switch_cpus3.commit.committedInstType_0::SimdAesMix            0      0.00%     85.31% # Class of committed instruction
system.switch_cpus3.commit.committedInstType_0::SimdSha1Hash            0      0.00%     85.31% # Class of committed instruction
system.switch_cpus3.commit.committedInstType_0::SimdSha1Hash2            0      0.00%     85.31% # Class of committed instruction
system.switch_cpus3.commit.committedInstType_0::SimdSha256Hash            0      0.00%     85.31% # Class of committed instruction
system.switch_cpus3.commit.committedInstType_0::SimdSha256Hash2            0      0.00%     85.31% # Class of committed instruction
system.switch_cpus3.commit.committedInstType_0::SimdShaSigma2            0      0.00%     85.31% # Class of committed instruction
system.switch_cpus3.commit.committedInstType_0::SimdShaSigma3            0      0.00%     85.31% # Class of committed instruction
system.switch_cpus3.commit.committedInstType_0::SimdPredAlu            0      0.00%     85.31% # Class of committed instruction
system.switch_cpus3.commit.committedInstType_0::MemRead     14066532     10.07%     95.38% # Class of committed instruction
system.switch_cpus3.commit.committedInstType_0::MemWrite      5953423      4.26%     99.64% # Class of committed instruction
system.switch_cpus3.commit.committedInstType_0::FloatMemRead       251500      0.18%     99.82% # Class of committed instruction
system.switch_cpus3.commit.committedInstType_0::FloatMemWrite       251514      0.18%    100.00% # Class of committed instruction
system.switch_cpus3.commit.committedInstType_0::IprAccess            0      0.00%    100.00% # Class of committed instruction
system.switch_cpus3.commit.committedInstType_0::InstPrefetch            0      0.00%    100.00% # Class of committed instruction
system.switch_cpus3.commit.committedInstType_0::total    139722093                       # Class of committed instruction
system.switch_cpus3.commit.commitEligibleSamples      6961724                       # number cycles where commit BW limit reached
system.switch_cpus3.decode.idleCycles         7264602                       # Number of cycles decode is idle
system.switch_cpus3.decode.blockedCycles     40526364                       # Number of cycles decode is blocked
system.switch_cpus3.decode.runCycles         23757816                       # Number of cycles decode is running
system.switch_cpus3.decode.unblockCycles     11702891                       # Number of cycles decode is unblocking
system.switch_cpus3.decode.squashCycles       1258882                       # Number of cycles decode is squashing
system.switch_cpus3.decode.branchResolved     14178297                       # Number of times decode resolved a  branch
system.switch_cpus3.decode.branchMispred         1663                       # Number of times decode detected a branch misprediction
system.switch_cpus3.decode.decodedInsts     256666599                       # Number of instructions handled by decode
system.switch_cpus3.decode.squashedInsts         4393                       # Number of squashed instructions handled by decode
system.switch_cpus3.dtb.rdAccesses           22953382                       # TLB accesses on read requests
system.switch_cpus3.dtb.wrAccesses           10266989                       # TLB accesses on write requests
system.switch_cpus3.dtb.rdMisses                13967                       # TLB misses on read requests
system.switch_cpus3.dtb.wrMisses                  685                       # TLB misses on write requests
system.switch_cpus3.dtb.walker.power_state.pwrStateResidencyTicks::UNDEFINED 14978607000066                       # Cumulative time (in ticks) in various power states
system.switch_cpus3.fetch.icacheStallCycles      1150401                       # Number of cycles fetch is stalled on an Icache miss
system.switch_cpus3.fetch.insts             195558627                       # Number of instructions fetch has processed
system.switch_cpus3.fetch.branches           22794408                       # Number of branches that fetch encountered
system.switch_cpus3.fetch.predictedBranches     15752992                       # Number of branches that fetch has predicted taken
system.switch_cpus3.fetch.cycles             82099419                       # Number of cycles fetch has run and was not squashing or blocked
system.switch_cpus3.fetch.squashCycles        2521060                       # Number of cycles fetch has spent squashing
system.switch_cpus3.fetch.miscStallCycles           22                       # Number of cycles fetch has spent waiting on interrupts,or bad addresses, or out of MSHRs
system.switch_cpus3.fetch.pendingTrapStallCycles          187                       # Number of stall cycles due to pending traps
system.switch_cpus3.fetch.cacheLines         26109733                       # Number of cache lines fetched
system.switch_cpus3.fetch.icacheSquashes          249                       # Number of outstanding Icache misses that were squashed
system.switch_cpus3.fetch.nisnDist::samples     84510559                       # Number of instructions fetched each cycle (Total)
system.switch_cpus3.fetch.nisnDist::mean     3.413769                       # Number of instructions fetched each cycle (Total)
system.switch_cpus3.fetch.nisnDist::stdev     3.358774                       # Number of instructions fetched each cycle (Total)
system.switch_cpus3.fetch.nisnDist::underflows            0      0.00%      0.00% # Number of instructions fetched each cycle (Total)
system.switch_cpus3.fetch.nisnDist::0        32025995     37.90%     37.90% # Number of instructions fetched each cycle (Total)
system.switch_cpus3.fetch.nisnDist::1         4825773      5.71%     43.61% # Number of instructions fetched each cycle (Total)
system.switch_cpus3.fetch.nisnDist::2         5633869      6.67%     50.27% # Number of instructions fetched each cycle (Total)
system.switch_cpus3.fetch.nisnDist::3         4247301      5.03%     55.30% # Number of instructions fetched each cycle (Total)
system.switch_cpus3.fetch.nisnDist::4         4530338      5.36%     60.66% # Number of instructions fetched each cycle (Total)
system.switch_cpus3.fetch.nisnDist::5         5409781      6.40%     67.06% # Number of instructions fetched each cycle (Total)
system.switch_cpus3.fetch.nisnDist::6         3220086      3.81%     70.87% # Number of instructions fetched each cycle (Total)
system.switch_cpus3.fetch.nisnDist::7         1765961      2.09%     72.96% # Number of instructions fetched each cycle (Total)
system.switch_cpus3.fetch.nisnDist::8        22851455     27.04%    100.00% # Number of instructions fetched each cycle (Total)
system.switch_cpus3.fetch.nisnDist::overflows            0      0.00%    100.00% # Number of instructions fetched each cycle (Total)
system.switch_cpus3.fetch.nisnDist::min_value            0                       # Number of instructions fetched each cycle (Total)
system.switch_cpus3.fetch.nisnDist::max_value            8                       # Number of instructions fetched each cycle (Total)
system.switch_cpus3.fetch.nisnDist::total     84510559                       # Number of instructions fetched each cycle (Total)
system.switch_cpus3.fetch.branchRate         0.269543                       # Number of branch fetches per cycle
system.switch_cpus3.fetch.rate               2.312470                       # Number of inst fetches per cycle
system.switch_cpus3.itb.rdAccesses                  0                       # TLB accesses on read requests
system.switch_cpus3.itb.wrAccesses           26109767                       # TLB accesses on write requests
system.switch_cpus3.itb.rdMisses                    0                       # TLB misses on read requests
system.switch_cpus3.itb.wrMisses                   53                       # TLB misses on write requests
system.switch_cpus3.itb.walker.power_state.pwrStateResidencyTicks::UNDEFINED 14978607000066                       # Cumulative time (in ticks) in various power states
system.switch_cpus3.lsq0.forwLoads            2759971                       # Number of loads that had data forwarded from stores
system.switch_cpus3.lsq0.squashedLoads       12514260                       # Number of loads squashed
system.switch_cpus3.lsq0.ignoredResponses         2472                       # Number of memory responses ignored because the instruction is squashed
system.switch_cpus3.lsq0.memOrderViolation         7861                       # Number of memory ordering violations
system.switch_cpus3.lsq0.squashedStores       8245151                       # Number of stores squashed
system.switch_cpus3.lsq0.rescheduledLoads            0                       # Number of loads that were rescheduled
system.switch_cpus3.lsq0.blockedByCache           132                       # Number of times an access to memory failed due to the cache being blocked
system.switch_cpus3.power_state.pwrStateResidencyTicks::OFF  28160817993                       # Cumulative time (in ticks) in various power states
system.switch_cpus3.rename.squashCycles       1258882                       # Number of cycles rename is squashing
system.switch_cpus3.rename.idleCycles        11895150                       # Number of cycles rename is idle
system.switch_cpus3.rename.blockCycles       18703161                       # Number of cycles rename is blocking
system.switch_cpus3.rename.serializeStallCycles            0                       # count of cycles rename stalledfor serializing inst
system.switch_cpus3.rename.runCycles         30624704                       # Number of cycles rename is running
system.switch_cpus3.rename.unblockCycles     22028658                       # Number of cycles rename is unblocking
system.switch_cpus3.rename.renamedInsts     249562600                       # Number of instructions processed by rename
system.switch_cpus3.rename.ROBFullEvents        13222                       # Number of times rename has blocked due to ROB full
system.switch_cpus3.rename.IQFullEvents      15792586                       # Number of times rename has blocked due to IQ full
system.switch_cpus3.rename.LQFullEvents         11541                       # Number of times rename has blocked due to LQ full
system.switch_cpus3.rename.SQFullEvents       4175423                       # Number of times rename has blocked due to SQ full
system.switch_cpus3.rename.renamedOperands    357700667                       # Number of destination operands rename has renamed
system.switch_cpus3.rename.lookups          640366592                       # Number of register rename lookups that rename has made
system.switch_cpus3.rename.intLookups       434166225                       # Number of integer rename lookups
system.switch_cpus3.rename.fpLookups          2560171                       # Number of floating rename lookups
system.switch_cpus3.rename.committedMaps    205692182                       # Number of HB maps that are committed
system.switch_cpus3.rename.undoneMaps       152008480                       # Number of HB maps that are undone due to squashing
system.switch_cpus3.rename.serializing              0                       # count of serializing insts renamed
system.switch_cpus3.rename.tempSerializing            0                       # count of temporary serializing insts renamed
system.switch_cpus3.rename.skidInsts         47808581                       # count of insts added to the skid buffer
system.switch_cpus3.rob.reads               300052356                       # The number of ROB reads
system.switch_cpus3.rob.writes              485715681                       # The number of ROB writes
system.switch_cpus3.thread0.numInsts         96258045                       # Number of Instructions committed
system.switch_cpus3.thread0.numOps          139722093                       # Number of Ops committed
system.switch_cpus3.thread0.numMemRefs              0                       # Number of Memory References
system.voltage_domain.voltage                       1                       # Voltage in Volts

---------- End Simulation Statistics   ----------
