Command line:
./runscript_pride.sh roms AE.BASELINE.1C 1 2017
Global frequency set at 1000000000000 ticks per second
DRAM config: RowsPerBank: 65536, BanksPerRank: 32, RanksPerChannel: 1
warn: Sockets disabled, not accepting gdb connections
warn: CoherentXBar system.cpu.mmucache.mmubus has no snooping ports attached!
warn: Checkpoints for file descriptors currently do not work.
gem5 Simulator System.  http://gem5.org
gem5 is copyrighted software; use the --copyright option for details.

gem5 version 20.1.0.5
gem5 compiled Jul 12 2024 12:42:38
gem5 started Jul 31 2024 03:21:18
gem5 executing on a07dda8b130c, pid 225614
command line: /home/user/PrIDE/performance/gem5/build/X86/gem5.opt --outdir=/home/user/PrIDE/performance/gem5/stats/pride_multiprogram_16GBmem_250Mn.SPEC2017.C1/AE.BASELINE.1C/roms /home/user/PrIDE/performance/gem5/configs/example/se_rq_spec_config_multicore.py --redirects /lib64=/home/utils/gcc-6.2.0/lib64 --benchmark=roms --benchmark_stdout=/home/user/PrIDE/performance/gem5/stats/pride_multiprogram_16GBmem_250Mn.SPEC2017.C1/AE.BASELINE.1C/roms/roms.out --benchmark_stderr=/home/user/PrIDE/performance/gem5/stats/pride_multiprogram_16GBmem_250Mn.SPEC2017.C1/AE.BASELINE.1C/roms/roms.err --spec-version=2017 --num-cpus=1 --mem-size=16GB --mem-type=DDR5_2400_32x4 --mem-ranks=1 --mem-channels=1 --checkpoint-dir=/home/user/PrIDE/performance/gem5/cpts-DDR5/multiprogram_16GBmem_25Bn.SPEC2017.C1/roms-1-ref-x86 --checkpoint-restore=25000000000 --at-instruction --cpu-type DerivO3CPU --caches --l2cache --l1d_size=32kB --l1i_size=32kB --l2_size=256kB --l3_size=4MB --l1d_assoc=8 --l1i_assoc=8 --l2_assoc=16 --l3_assoc=16 --cpu-clock=3GHz --sys-clock=3GHz --maxinsts=250000000 --prog-interval=300Hz

info: Standard input is not a terminal, disabling listeners.
Benchmark- 0   roms
Selected benchmark
--> roms
CMD: ['/opt/spec2017/benchspec/CPU/554.roms_r/run/run_base_refrate_gem5_se-m64.0000/roms_r_base.gem5_se-m64']
CWD: /opt/spec2017/benchspec/CPU/554.roms_r/run/run_base_refrate_gem5_se-m64.0000/
Process stdout file: /home/user/PrIDE/performance/gem5/stats/pride_multiprogram_16GBmem_250Mn.SPEC2017.C1/AE.BASELINE.1C/roms/roms.out_0
Process stderr file: /home/user/PrIDE/performance/gem5/stats/pride_multiprogram_16GBmem_250Mn.SPEC2017.C1/AE.BASELINE.1C/roms/roms.err_0
Workload-0: 
['/opt/spec2017/benchspec/CPU/554.roms_r/run/run_base_refrate_gem5_se-m64.0000/roms_r_base.gem5_se-m64']
defense_enable:  False  detector:  MG  mitigation:  RRS  threshold:  800
mg_entries:  1700
rrs_tuples:  3400 rrs_swap_delay:  2740ns rit_acc_delay:  1.25ns
Switch at curTick count:10000
warn: membus.master is deprecated. `master` is now called `mem_side_ports`
warn: No dot file generated. Please install pydot to generate the dot file and pdf.
info: Entering event queue @ 15651257117958.  Starting simulation...
warn: PowerState: Already in the requested power state, request ignored
Switched CPUS @ tick 15651257127958
switching cpus
**** REAL SIMULATION ****
info: Entering event queue @ 15651257127958.  Starting simulation...
15654590451291: Event_93: system.switch_cpus progress event, total committed:9715334, progress insts committed: 9715334, IPC: 0.970562
15657923784624: Event_93: system.switch_cpus progress event, total committed:19439397, progress insts committed: 9724063, IPC: 0.971434
15661257117957: Event_93: system.switch_cpus progress event, total committed:30709691, progress insts committed: 11270294, IPC: 001.1259
15664590451290: Event_93: system.switch_cpus progress event, total committed:41575549, progress insts committed: 10865858, IPC: 001.0855
15667923784623: Event_93: system.switch_cpus progress event, total committed:51210083, progress insts committed: 9634534, IPC: 00.96249
15671257117956: Event_93: system.switch_cpus progress event, total committed:74840030, progress insts committed: 23629947, IPC: 02.36063
15674590451289: Event_93: system.switch_cpus progress event, total committed:102443538, progress insts committed: 27603508, IPC: 02.75759
15677923784622: Event_93: system.switch_cpus progress event, total committed:129116120, progress insts committed: 26672582, IPC: 02.66459
15681257117955: Event_93: system.switch_cpus progress event, total committed:154586101, progress insts committed: 25469981, IPC: 02.54445
15684590451288: Event_93: system.switch_cpus progress event, total committed:180248108, progress insts committed: 25662007, IPC: 02.56363
15687923784621: Event_93: system.switch_cpus progress event, total committed:205716075, progress insts committed: 25467967, IPC: 02.54425
15691257117954: Event_93: system.switch_cpus progress event, total committed:232469123, progress insts committed: 26753048, IPC: 02.67263
15694590451287: Event_93: system.switch_cpus progress event, total committed:259272749, progress insts committed: 26803626, IPC: 02.67768
15697923784620: Event_93: system.switch_cpus progress event, total committed:282148932, progress insts committed: 22876183, IPC: 02.28533
15701257117953: Event_93: system.switch_cpus progress event, total committed:322468999, progress insts committed: 40320067, IPC: 04.02797
15704590451286: Event_93: system.switch_cpus progress event, total committed:363640880, progress insts committed: 41171881, IPC: 04.11307
15707923784619: Event_93: system.switch_cpus progress event, total committed:405694024, progress insts committed: 42053144, IPC: 04.20111
Exiting @ tick 15708521094993 because a thread reached the max instruction count
