Command line:
./runscript_pride.sh mix3 RFM1.BR1.4C 4 2017 --rh_defense --rh_mitigation=RFM --rh_rfm_per_trefi=1 --rh_rfm_blast_radius=1 --rh_rfm_maxacts_per_trefi=79
Global frequency set at 1000000000000 ticks per second
RFM details - rfm_act_threshold: 79, blast_radius: 1, delay_per_rfm: 175000 ps. sample_rate: 0.012500
RH Defense config: RFM, Bus Delay: 0, rfms_per_trefi: 1, rfm_act_threshold: 79, blast_radius: 1,rfm_delay_per_act: 45000 ps.
DRAM config: RowsPerBank: 65536, BanksPerRank: 32, RanksPerChannel: 1
warn: Sockets disabled, not accepting gdb connections
warn: CoherentXBar system.cpu0.mmucache.mmubus has no snooping ports attached!
warn: CoherentXBar system.cpu1.mmucache.mmubus has no snooping ports attached!
warn: CoherentXBar system.cpu2.mmucache.mmubus has no snooping ports attached!
warn: CoherentXBar system.cpu3.mmucache.mmubus has no snooping ports attached!
warn: Checkpoints for file descriptors currently do not work.
warn: Checkpoints for file descriptors currently do not work.
warn: Checkpoints for file descriptors currently do not work.
warn: Checkpoints for file descriptors currently do not work.
gem5 Simulator System.  http://gem5.org
gem5 is copyrighted software; use the --copyright option for details.

gem5 version 20.1.0.5
gem5 compiled Jul 12 2024 12:42:38
gem5 started Jul 31 2024 15:37:59
gem5 executing on a07dda8b130c, pid 238827
command line: /home/user/PrIDE/performance/gem5/build/X86/gem5.opt --outdir=/home/user/PrIDE/performance/gem5/stats/pride_multiprogram_16GBmem_250Mn.SPEC2017.C4/RFM1.BR1.4C/mix3 /home/user/PrIDE/performance/gem5/configs/example/se_rq_spec_config_multicore.py --redirects /lib64=/home/utils/gcc-6.2.0/lib64 --benchmark=mix3 --benchmark_stdout=/home/user/PrIDE/performance/gem5/stats/pride_multiprogram_16GBmem_250Mn.SPEC2017.C4/RFM1.BR1.4C/mix3/mix3.out --benchmark_stderr=/home/user/PrIDE/performance/gem5/stats/pride_multiprogram_16GBmem_250Mn.SPEC2017.C4/RFM1.BR1.4C/mix3/mix3.err --spec-version=2017 --rh_defense --rh_mitigation=RFM --rh_rfm_per_trefi=1 --rh_rfm_blast_radius=1 --rh_rfm_maxacts_per_trefi=79 --num-cpus=4 --mem-size=16GB --mem-type=DDR5_2400_32x4 --mem-ranks=1 --mem-channels=1 --checkpoint-dir=/home/user/PrIDE/performance/gem5/cpts-DDR5/multiprogram_16GBmem_25Bn.SPEC2017.C4/mix3-1-ref-x86 --checkpoint-restore=25000000000 --at-instruction --cpu-type DerivO3CPU --caches --l2cache --l1d_size=32kB --l1i_size=32kB --l2_size=256kB --l3_size=4MB --l1d_assoc=8 --l1i_assoc=8 --l2_assoc=16 --l3_assoc=16 --cpu-clock=3GHz --sys-clock=3GHz --maxinsts=250000000 --prog-interval=300Hz

info: Standard input is not a terminal, disabling listeners.
Benchmark- 0   exchange2
Selected benchmark
--> exchange2
CMD: ['/opt/spec2017/benchspec/CPU/548.exchange2_r/run/run_base_refrate_gem5_se-m64.0000/exchange2_r_base.gem5_se-m64', '6']
CWD: /opt/spec2017/benchspec/CPU/548.exchange2_r/run/run_base_refrate_gem5_se-m64.0000/
Process stdout file: /home/user/PrIDE/performance/gem5/stats/pride_multiprogram_16GBmem_250Mn.SPEC2017.C4/RFM1.BR1.4C/mix3/mix3.out_0
Process stderr file: /home/user/PrIDE/performance/gem5/stats/pride_multiprogram_16GBmem_250Mn.SPEC2017.C4/RFM1.BR1.4C/mix3/mix3.err_0
Benchmark- 1   roms
Selected benchmark
--> roms
CMD: ['/opt/spec2017/benchspec/CPU/554.roms_r/run/run_base_refrate_gem5_se-m64.0000/roms_r_base.gem5_se-m64']
CWD: /opt/spec2017/benchspec/CPU/554.roms_r/run/run_base_refrate_gem5_se-m64.0000/
Process stdout file: /home/user/PrIDE/performance/gem5/stats/pride_multiprogram_16GBmem_250Mn.SPEC2017.C4/RFM1.BR1.4C/mix3/mix3.out_1
Process stderr file: /home/user/PrIDE/performance/gem5/stats/pride_multiprogram_16GBmem_250Mn.SPEC2017.C4/RFM1.BR1.4C/mix3/mix3.err_1
Benchmark- 2   imagick
Selected benchmark
--> imagick
CMD: ['/opt/spec2017/benchspec/CPU/538.imagick_r/run/run_base_refrate_gem5_se-m64.0000/imagick_r_base.gem5_se-m64', '-limit', 'disk', '0', '/opt/spec2017/benchspec/CPU/538.imagick_r/run/run_base_refrate_gem5_se-m64.0000/refrate_input.tga', '-edge', '41', '-resample', '181%', '-emboss', '31', '-colorspace', 'YUV', '-mean-shift', '19x19+15%', '-resize', '30%', '/opt/spec2017/benchspec/CPU/538.imagick_r/run/run_base_refrate_gem5_se-m64.0000/refrate_output.tga']
CWD: /opt/spec2017/benchspec/CPU/538.imagick_r/run/run_base_refrate_gem5_se-m64.0000/
Process stdout file: /home/user/PrIDE/performance/gem5/stats/pride_multiprogram_16GBmem_250Mn.SPEC2017.C4/RFM1.BR1.4C/mix3/mix3.out_2
Process stderr file: /home/user/PrIDE/performance/gem5/stats/pride_multiprogram_16GBmem_250Mn.SPEC2017.C4/RFM1.BR1.4C/mix3/mix3.err_2
Benchmark- 3   xz
Selected benchmark
--> xz
CMD: ['/opt/spec2017/benchspec/CPU/557.xz_r/run/run_base_refrate_gem5_se-m64.0000/xz_r_base.gem5_se-m64', '/opt/spec2017/benchspec/CPU/557.xz_r/run/run_base_refrate_gem5_se-m64.0000/cld.tar.xz', '160', '19cf30ae51eddcbefda78dd06014b4b96281456e078ca7c13e1c0c9e6aaea8dff3efb4ad6b0456697718cede6bd5454852652806a657bb56e07d61128434b474', '59796407', '61004416', '6']
CWD: /opt/spec2017/benchspec/CPU/557.xz_r/run/run_base_refrate_gem5_se-m64.0000/
Process stdout file: /home/user/PrIDE/performance/gem5/stats/pride_multiprogram_16GBmem_250Mn.SPEC2017.C4/RFM1.BR1.4C/mix3/mix3.out_3
Process stderr file: /home/user/PrIDE/performance/gem5/stats/pride_multiprogram_16GBmem_250Mn.SPEC2017.C4/RFM1.BR1.4C/mix3/mix3.err_3
Workload-0: 
['/opt/spec2017/benchspec/CPU/548.exchange2_r/run/run_base_refrate_gem5_se-m64.0000/exchange2_r_base.gem5_se-m64', '6']
Workload-1: 
['/opt/spec2017/benchspec/CPU/554.roms_r/run/run_base_refrate_gem5_se-m64.0000/roms_r_base.gem5_se-m64']
Workload-2: 
['/opt/spec2017/benchspec/CPU/538.imagick_r/run/run_base_refrate_gem5_se-m64.0000/imagick_r_base.gem5_se-m64', '-limit', 'disk', '0', '/opt/spec2017/benchspec/CPU/538.imagick_r/run/run_base_refrate_gem5_se-m64.0000/refrate_input.tga', '-edge', '41', '-resample', '181%', '-emboss', '31', '-colorspace', 'YUV', '-mean-shift', '19x19+15%', '-resize', '30%', '/opt/spec2017/benchspec/CPU/538.imagick_r/run/run_base_refrate_gem5_se-m64.0000/refrate_output.tga']
Workload-3: 
['/opt/spec2017/benchspec/CPU/557.xz_r/run/run_base_refrate_gem5_se-m64.0000/xz_r_base.gem5_se-m64', '/opt/spec2017/benchspec/CPU/557.xz_r/run/run_base_refrate_gem5_se-m64.0000/cld.tar.xz', '160', '19cf30ae51eddcbefda78dd06014b4b96281456e078ca7c13e1c0c9e6aaea8dff3efb4ad6b0456697718cede6bd5454852652806a657bb56e07d61128434b474', '59796407', '61004416', '6']
defense_enable:  True  detector:  MG  mitigation:  RFM  threshold:  800
mg_entries:  1700
rfm_maxacts_per_trefi:  79 rfm_per_trefi:  1 rfm_blast_radius:  1
Switch at curTick count:10000
warn: membus.master is deprecated. `master` is now called `mem_side_ports`
warn: No dot file generated. Please install pydot to generate the dot file and pdf.
info: Entering event queue @ 14950446118803.  Starting simulation...
warn: MOVNTDQ: Ignoring non-temporal hint, modeling as cacheable!
warn: PowerState: Already in the requested power state, request ignored
Switched CPUS @ tick 14950446128803
switching cpus
**** REAL SIMULATION ****
info: Entering event queue @ 14950446128803.  Starting simulation...
14953779452136: Event_285: system.switch_cpus3 progress event, total committed:16317997, progress insts committed: 16317997, IPC: 01.63017
14953779452136: Event_284: system.switch_cpus2 progress event, total committed:51983613, progress insts committed: 51983613, IPC: 05.19316
14953779452136: Event_283: system.switch_cpus1 progress event, total committed:48019285, progress insts committed: 48019285, IPC: 04.79713
14953779452136: Event_282: system.switch_cpus0 progress event, total committed:34507092, progress insts committed: 34507092, IPC: 03.44726
14957112785469: Event_282: system.switch_cpus0 progress event, total committed:70982338, progress insts committed: 36475246, IPC: 03.64388
14957112785469: Event_283: system.switch_cpus1 progress event, total committed:96855511, progress insts committed: 48836226, IPC: 04.87874
14957112785469: Event_284: system.switch_cpus2 progress event, total committed:105320924, progress insts committed: 53337311, IPC: 005.3284
14957112785469: Event_285: system.switch_cpus3 progress event, total committed:32914121, progress insts committed: 16596124, IPC: 01.65795
14960446118802: Event_285: system.switch_cpus3 progress event, total committed:49582106, progress insts committed: 16667985, IPC: 01.66513
14960446118802: Event_284: system.switch_cpus2 progress event, total committed:131775197, progress insts committed: 26454273, IPC: 02.64278
14960446118802: Event_283: system.switch_cpus1 progress event, total committed:146076915, progress insts committed: 49221404, IPC: 04.91722
14960446118802: Event_282: system.switch_cpus0 progress event, total committed:107912247, progress insts committed: 36929909, IPC: 003.6893
14963779452135: Event_282: system.switch_cpus0 progress event, total committed:142589151, progress insts committed: 34676904, IPC: 03.46422
14963779452135: Event_283: system.switch_cpus1 progress event, total committed:194748155, progress insts committed: 48671240, IPC: 04.86226
14963779452135: Event_284: system.switch_cpus2 progress event, total committed:185609741, progress insts committed: 53834544, IPC: 05.37807
14963779452135: Event_285: system.switch_cpus3 progress event, total committed:66254702, progress insts committed: 16672596, IPC: 01.66559
14967112785468: Event_285: system.switch_cpus3 progress event, total committed:82719914, progress insts committed: 16465212, IPC: 01.64487
14967112785468: Event_284: system.switch_cpus2 progress event, total committed:239310280, progress insts committed: 53700539, IPC: 05.36468
14967112785468: Event_283: system.switch_cpus1 progress event, total committed:223854774, progress insts committed: 29106619, IPC: 02.90775
14967112785468: Event_282: system.switch_cpus0 progress event, total committed:178303090, progress insts committed: 35713939, IPC: 03.56782
14970446118801: Event_282: system.switch_cpus0 progress event, total committed:215281670, progress insts committed: 36978580, IPC: 03.69416
14970446118801: Event_283: system.switch_cpus1 progress event, total committed:274709335, progress insts committed: 50854561, IPC: 05.08037
14970446118801: Event_284: system.switch_cpus2 progress event, total committed:292625790, progress insts committed: 53315510, IPC: 05.32622
14970446118801: Event_285: system.switch_cpus3 progress event, total committed:99387616, progress insts committed: 16667702, IPC: 001.6651
14973779452134: Event_285: system.switch_cpus3 progress event, total committed:115850446, progress insts committed: 16462830, IPC: 01.64464
14973779452134: Event_284: system.switch_cpus2 progress event, total committed:345944517, progress insts committed: 53318727, IPC: 05.32654
14973779452134: Event_283: system.switch_cpus1 progress event, total committed:324718181, progress insts committed: 50008846, IPC: 04.99588
14973779452134: Event_282: system.switch_cpus0 progress event, total committed:252159972, progress insts committed: 36878302, IPC: 03.68414
14977112785467: Event_282: system.switch_cpus0 progress event, total committed:292001378, progress insts committed: 39841406, IPC: 03.98016
14977112785467: Event_283: system.switch_cpus1 progress event, total committed:373790582, progress insts committed: 49072401, IPC: 04.90233
14977112785467: Event_284: system.switch_cpus2 progress event, total committed:399220860, progress insts committed: 53276343, IPC: 05.32231
14977112785467: Event_285: system.switch_cpus3 progress event, total committed:132333643, progress insts committed: 16483197, IPC: 01.64667
Exiting @ tick 14978609605125 because a thread reached the max instruction count
