Command line:
./runscript_pride.sh xz RFM5.BR2.4C 4 2017 --rh_defense --rh_mitigation=RFM --rh_rfm_per_trefi=5 --rh_rfm_blast_radius=2 --rh_rfm_maxacts_per_trefi=79
Global frequency set at 1000000000000 ticks per second
RFM details - rfm_act_threshold: 15, blast_radius: 2, delay_per_rfm: 175000 ps. sample_rate: 0.062500
RH Defense config: RFM, Bus Delay: 0, rfms_per_trefi: 5, rfm_act_threshold: 15, blast_radius: 2,rfm_delay_per_act: 45000 ps.
DRAM config: RowsPerBank: 65536, BanksPerRank: 32, RanksPerChannel: 1
warn: Sockets disabled, not accepting gdb connections
warn: CoherentXBar system.cpu0.mmucache.mmubus has no snooping ports attached!
warn: CoherentXBar system.cpu1.mmucache.mmubus has no snooping ports attached!
warn: CoherentXBar system.cpu2.mmucache.mmubus has no snooping ports attached!
warn: CoherentXBar system.cpu3.mmucache.mmubus has no snooping ports attached!
warn: Checkpoints for file descriptors currently do not work.
warn: Checkpoints for file descriptors currently do not work.
warn: Checkpoints for file descriptors currently do not work.
warn: Checkpoints for file descriptors currently do not work.
gem5 Simulator System.  http://gem5.org
gem5 is copyrighted software; use the --copyright option for details.

gem5 version 20.1.0.5
gem5 compiled Jul 12 2024 12:42:38
gem5 started Aug  1 2024 18:07:14
gem5 executing on a07dda8b130c, pid 250856
command line: /home/user/PrIDE/performance/gem5/build/X86/gem5.opt --outdir=/home/user/PrIDE/performance/gem5/stats/pride_multiprogram_16GBmem_250Mn.SPEC2017.C4/RFM5.BR2.4C/xz /home/user/PrIDE/performance/gem5/configs/example/se_rq_spec_config_multicore.py --redirects /lib64=/home/utils/gcc-6.2.0/lib64 --benchmark=xz --benchmark_stdout=/home/user/PrIDE/performance/gem5/stats/pride_multiprogram_16GBmem_250Mn.SPEC2017.C4/RFM5.BR2.4C/xz/xz.out --benchmark_stderr=/home/user/PrIDE/performance/gem5/stats/pride_multiprogram_16GBmem_250Mn.SPEC2017.C4/RFM5.BR2.4C/xz/xz.err --spec-version=2017 --rh_defense --rh_mitigation=RFM --rh_rfm_per_trefi=5 --rh_rfm_blast_radius=2 --rh_rfm_maxacts_per_trefi=79 --num-cpus=4 --mem-size=16GB --mem-type=DDR5_2400_32x4 --mem-ranks=1 --mem-channels=1 --checkpoint-dir=/home/user/PrIDE/performance/gem5/cpts-DDR5/multiprogram_16GBmem_25Bn.SPEC2017.C4/xz-1-ref-x86 --checkpoint-restore=25000000000 --at-instruction --cpu-type DerivO3CPU --caches --l2cache --l1d_size=32kB --l1i_size=32kB --l2_size=256kB --l3_size=4MB --l1d_assoc=8 --l1i_assoc=8 --l2_assoc=16 --l3_assoc=16 --cpu-clock=3GHz --sys-clock=3GHz --maxinsts=250000000 --prog-interval=300Hz

info: Standard input is not a terminal, disabling listeners.
Benchmark- 0   xz
Selected benchmark
--> xz
CMD: ['/opt/spec2017/benchspec/CPU/557.xz_r/run/run_base_refrate_gem5_se-m64.0000/xz_r_base.gem5_se-m64', '/opt/spec2017/benchspec/CPU/557.xz_r/run/run_base_refrate_gem5_se-m64.0000/cld.tar.xz', '160', '19cf30ae51eddcbefda78dd06014b4b96281456e078ca7c13e1c0c9e6aaea8dff3efb4ad6b0456697718cede6bd5454852652806a657bb56e07d61128434b474', '59796407', '61004416', '6']
CWD: /opt/spec2017/benchspec/CPU/557.xz_r/run/run_base_refrate_gem5_se-m64.0000/
Process stdout file: /home/user/PrIDE/performance/gem5/stats/pride_multiprogram_16GBmem_250Mn.SPEC2017.C4/RFM5.BR2.4C/xz/xz.out_0
Process stderr file: /home/user/PrIDE/performance/gem5/stats/pride_multiprogram_16GBmem_250Mn.SPEC2017.C4/RFM5.BR2.4C/xz/xz.err_0
Benchmark- 1   xz
Selected benchmark
--> xz
CMD: ['/opt/spec2017/benchspec/CPU/557.xz_r/run/run_base_refrate_gem5_se-m64.0000/xz_r_base.gem5_se-m64', '/opt/spec2017/benchspec/CPU/557.xz_r/run/run_base_refrate_gem5_se-m64.0000/cld.tar.xz', '160', '19cf30ae51eddcbefda78dd06014b4b96281456e078ca7c13e1c0c9e6aaea8dff3efb4ad6b0456697718cede6bd5454852652806a657bb56e07d61128434b474', '59796407', '61004416', '6']
CWD: /opt/spec2017/benchspec/CPU/557.xz_r/run/run_base_refrate_gem5_se-m64.0000/
Process stdout file: /home/user/PrIDE/performance/gem5/stats/pride_multiprogram_16GBmem_250Mn.SPEC2017.C4/RFM5.BR2.4C/xz/xz.out_1
Process stderr file: /home/user/PrIDE/performance/gem5/stats/pride_multiprogram_16GBmem_250Mn.SPEC2017.C4/RFM5.BR2.4C/xz/xz.err_1
Benchmark- 2   xz
Selected benchmark
--> xz
CMD: ['/opt/spec2017/benchspec/CPU/557.xz_r/run/run_base_refrate_gem5_se-m64.0000/xz_r_base.gem5_se-m64', '/opt/spec2017/benchspec/CPU/557.xz_r/run/run_base_refrate_gem5_se-m64.0000/cld.tar.xz', '160', '19cf30ae51eddcbefda78dd06014b4b96281456e078ca7c13e1c0c9e6aaea8dff3efb4ad6b0456697718cede6bd5454852652806a657bb56e07d61128434b474', '59796407', '61004416', '6']
CWD: /opt/spec2017/benchspec/CPU/557.xz_r/run/run_base_refrate_gem5_se-m64.0000/
Process stdout file: /home/user/PrIDE/performance/gem5/stats/pride_multiprogram_16GBmem_250Mn.SPEC2017.C4/RFM5.BR2.4C/xz/xz.out_2
Process stderr file: /home/user/PrIDE/performance/gem5/stats/pride_multiprogram_16GBmem_250Mn.SPEC2017.C4/RFM5.BR2.4C/xz/xz.err_2
Benchmark- 3   xz
Selected benchmark
--> xz
CMD: ['/opt/spec2017/benchspec/CPU/557.xz_r/run/run_base_refrate_gem5_se-m64.0000/xz_r_base.gem5_se-m64', '/opt/spec2017/benchspec/CPU/557.xz_r/run/run_base_refrate_gem5_se-m64.0000/cld.tar.xz', '160', '19cf30ae51eddcbefda78dd06014b4b96281456e078ca7c13e1c0c9e6aaea8dff3efb4ad6b0456697718cede6bd5454852652806a657bb56e07d61128434b474', '59796407', '61004416', '6']
CWD: /opt/spec2017/benchspec/CPU/557.xz_r/run/run_base_refrate_gem5_se-m64.0000/
Process stdout file: /home/user/PrIDE/performance/gem5/stats/pride_multiprogram_16GBmem_250Mn.SPEC2017.C4/RFM5.BR2.4C/xz/xz.out_3
Process stderr file: /home/user/PrIDE/performance/gem5/stats/pride_multiprogram_16GBmem_250Mn.SPEC2017.C4/RFM5.BR2.4C/xz/xz.err_3
Workload-0: 
['/opt/spec2017/benchspec/CPU/557.xz_r/run/run_base_refrate_gem5_se-m64.0000/xz_r_base.gem5_se-m64', '/opt/spec2017/benchspec/CPU/557.xz_r/run/run_base_refrate_gem5_se-m64.0000/cld.tar.xz', '160', '19cf30ae51eddcbefda78dd06014b4b96281456e078ca7c13e1c0c9e6aaea8dff3efb4ad6b0456697718cede6bd5454852652806a657bb56e07d61128434b474', '59796407', '61004416', '6']
Workload-1: 
['/opt/spec2017/benchspec/CPU/557.xz_r/run/run_base_refrate_gem5_se-m64.0000/xz_r_base.gem5_se-m64', '/opt/spec2017/benchspec/CPU/557.xz_r/run/run_base_refrate_gem5_se-m64.0000/cld.tar.xz', '160', '19cf30ae51eddcbefda78dd06014b4b96281456e078ca7c13e1c0c9e6aaea8dff3efb4ad6b0456697718cede6bd5454852652806a657bb56e07d61128434b474', '59796407', '61004416', '6']
Workload-2: 
['/opt/spec2017/benchspec/CPU/557.xz_r/run/run_base_refrate_gem5_se-m64.0000/xz_r_base.gem5_se-m64', '/opt/spec2017/benchspec/CPU/557.xz_r/run/run_base_refrate_gem5_se-m64.0000/cld.tar.xz', '160', '19cf30ae51eddcbefda78dd06014b4b96281456e078ca7c13e1c0c9e6aaea8dff3efb4ad6b0456697718cede6bd5454852652806a657bb56e07d61128434b474', '59796407', '61004416', '6']
Workload-3: 
['/opt/spec2017/benchspec/CPU/557.xz_r/run/run_base_refrate_gem5_se-m64.0000/xz_r_base.gem5_se-m64', '/opt/spec2017/benchspec/CPU/557.xz_r/run/run_base_refrate_gem5_se-m64.0000/cld.tar.xz', '160', '19cf30ae51eddcbefda78dd06014b4b96281456e078ca7c13e1c0c9e6aaea8dff3efb4ad6b0456697718cede6bd5454852652806a657bb56e07d61128434b474', '59796407', '61004416', '6']
defense_enable:  True  detector:  MG  mitigation:  RFM  threshold:  800
mg_entries:  1700
rfm_maxacts_per_trefi:  79 rfm_per_trefi:  5 rfm_blast_radius:  2
Switch at curTick count:10000
warn: membus.master is deprecated. `master` is now called `mem_side_ports`
warn: No dot file generated. Please install pydot to generate the dot file and pdf.
info: Entering event queue @ 14950446118803.  Starting simulation...
warn: MOVNTDQ: Ignoring non-temporal hint, modeling as cacheable!
warn: PowerState: Already in the requested power state, request ignored
Switched CPUS @ tick 14950446128803
switching cpus
**** REAL SIMULATION ****
info: Entering event queue @ 14950446128803.  Starting simulation...
14953779452136: Event_285: system.switch_cpus3 progress event, total committed:16318918, progress insts committed: 16318918, IPC: 01.63026
14953779452136: Event_284: system.switch_cpus2 progress event, total committed:16318921, progress insts committed: 16318921, IPC: 01.63026
14953779452136: Event_283: system.switch_cpus1 progress event, total committed:16319878, progress insts committed: 16319878, IPC: 01.63036
14953779452136: Event_282: system.switch_cpus0 progress event, total committed:16319878, progress insts committed: 16319878, IPC: 01.63036
14957112785469: Event_282: system.switch_cpus0 progress event, total committed:32980936, progress insts committed: 16661058, IPC: 01.66444
14957112785469: Event_283: system.switch_cpus1 progress event, total committed:32980895, progress insts committed: 16661017, IPC: 01.66444
14957112785469: Event_284: system.switch_cpus2 progress event, total committed:32944427, progress insts committed: 16625506, IPC: 01.66089
14957112785469: Event_285: system.switch_cpus3 progress event, total committed:32944423, progress insts committed: 16625505, IPC: 01.66089
14960446118802: Event_285: system.switch_cpus3 progress event, total committed:49664484, progress insts committed: 16720061, IPC: 01.67033
14960446118802: Event_284: system.switch_cpus2 progress event, total committed:49664512, progress insts committed: 16720085, IPC: 01.67034
14960446118802: Event_283: system.switch_cpus1 progress event, total committed:49705259, progress insts committed: 16724364, IPC: 01.67076
14960446118802: Event_282: system.switch_cpus0 progress event, total committed:49705255, progress insts committed: 16724319, IPC: 01.67076
14963779452135: Event_282: system.switch_cpus0 progress event, total committed:66383848, progress insts committed: 16678593, IPC: 01.66619
14963779452135: Event_283: system.switch_cpus1 progress event, total committed:66383835, progress insts committed: 16678576, IPC: 01.66619
14963779452135: Event_284: system.switch_cpus2 progress event, total committed:66338832, progress insts committed: 16674320, IPC: 01.66576
14963779452135: Event_285: system.switch_cpus3 progress event, total committed:66338782, progress insts committed: 16674298, IPC: 01.66576
14967112785468: Event_285: system.switch_cpus3 progress event, total committed:82915967, progress insts committed: 16577185, IPC: 01.65606
14967112785468: Event_284: system.switch_cpus2 progress event, total committed:82915967, progress insts committed: 16577135, IPC: 01.65606
14967112785468: Event_283: system.switch_cpus1 progress event, total committed:82918211, progress insts committed: 16534376, IPC: 01.65178
14967112785468: Event_282: system.switch_cpus0 progress event, total committed:82918211, progress insts committed: 16534363, IPC: 01.65178
14970446118801: Event_282: system.switch_cpus0 progress event, total committed:99499261, progress insts committed: 16581050, IPC: 01.65645
14970446118801: Event_283: system.switch_cpus1 progress event, total committed:99499265, progress insts committed: 16581054, IPC: 01.65645
14970446118801: Event_284: system.switch_cpus2 progress event, total committed:99437595, progress insts committed: 16521628, IPC: 01.65051
14970446118801: Event_285: system.switch_cpus3 progress event, total committed:99437295, progress insts committed: 16521328, IPC: 01.65048
14973779452134: Event_285: system.switch_cpus3 progress event, total committed:115779026, progress insts committed: 16341731, IPC: 01.63254
14973779452134: Event_284: system.switch_cpus2 progress event, total committed:115778988, progress insts committed: 16341393, IPC: 01.63251
14973779452134: Event_283: system.switch_cpus1 progress event, total committed:115871635, progress insts committed: 16372370, IPC: 001.6356
14973779452134: Event_282: system.switch_cpus0 progress event, total committed:115871605, progress insts committed: 16372344, IPC: 001.6356
14977112785467: Event_282: system.switch_cpus0 progress event, total committed:132315170, progress insts committed: 16443565, IPC: 01.64271
14977112785467: Event_283: system.switch_cpus1 progress event, total committed:132315129, progress insts committed: 16443494, IPC: 01.64271
14977112785467: Event_284: system.switch_cpus2 progress event, total committed:132198106, progress insts committed: 16419118, IPC: 01.64027
14977112785467: Event_285: system.switch_cpus3 progress event, total committed:132198048, progress insts committed: 16419022, IPC: 01.64026
14980446118800: Event_285: system.switch_cpus3 progress event, total committed:148588200, progress insts committed: 16390152, IPC: 01.63738
14980446118800: Event_284: system.switch_cpus2 progress event, total committed:148588232, progress insts committed: 16390126, IPC: 01.63737
14980446118800: Event_283: system.switch_cpus1 progress event, total committed:148726587, progress insts committed: 16411458, IPC: 001.6395
14980446118800: Event_282: system.switch_cpus0 progress event, total committed:148726545, progress insts committed: 16411375, IPC: 001.6395
14983779452133: Event_282: system.switch_cpus0 progress event, total committed:165135817, progress insts committed: 16409272, IPC: 01.63929
14983779452133: Event_283: system.switch_cpus1 progress event, total committed:165135850, progress insts committed: 16409263, IPC: 01.63929
14983779452133: Event_284: system.switch_cpus2 progress event, total committed:165005298, progress insts committed: 16417066, IPC: 01.64006
14983779452133: Event_285: system.switch_cpus3 progress event, total committed:165005266, progress insts committed: 16417066, IPC: 01.64006
14987112785466: Event_285: system.switch_cpus3 progress event, total committed:181439259, progress insts committed: 16433993, IPC: 01.64176
14987112785466: Event_284: system.switch_cpus2 progress event, total committed:181439307, progress insts committed: 16434009, IPC: 01.64176
14987112785466: Event_283: system.switch_cpus1 progress event, total committed:181594406, progress insts committed: 16458556, IPC: 01.64421
14987112785466: Event_282: system.switch_cpus0 progress event, total committed:181594375, progress insts committed: 16458558, IPC: 01.64421
14990446118799: Event_282: system.switch_cpus0 progress event, total committed:198026042, progress insts committed: 16431667, IPC: 01.64152
14990446118799: Event_283: system.switch_cpus1 progress event, total committed:198025997, progress insts committed: 16431591, IPC: 01.64152
14990446118799: Event_284: system.switch_cpus2 progress event, total committed:197862407, progress insts committed: 16423100, IPC: 01.64067
14990446118799: Event_285: system.switch_cpus3 progress event, total committed:197862372, progress insts committed: 16423113, IPC: 01.64067
14993779452132: Event_285: system.switch_cpus3 progress event, total committed:214400214, progress insts committed: 16537842, IPC: 01.65213
14993779452132: Event_284: system.switch_cpus2 progress event, total committed:214401854, progress insts committed: 16539447, IPC: 01.65229
14993779452132: Event_283: system.switch_cpus1 progress event, total committed:214552824, progress insts committed: 16526827, IPC: 01.65103
14993779452132: Event_282: system.switch_cpus0 progress event, total committed:214551120, progress insts committed: 16525078, IPC: 01.65086
14997112785465: Event_282: system.switch_cpus0 progress event, total committed:230977813, progress insts committed: 16426693, IPC: 01.64103
14997112785465: Event_283: system.switch_cpus1 progress event, total committed:230977769, progress insts committed: 16424945, IPC: 01.64085
14997112785465: Event_284: system.switch_cpus2 progress event, total committed:230786221, progress insts committed: 16384367, IPC: 001.6368
14997112785465: Event_285: system.switch_cpus3 progress event, total committed:230786221, progress insts committed: 16386007, IPC: 01.63696
15000446118798: Event_285: system.switch_cpus3 progress event, total committed:247391342, progress insts committed: 16605121, IPC: 01.65885
15000446118798: Event_284: system.switch_cpus2 progress event, total committed:247391390, progress insts committed: 16605169, IPC: 01.65886
15000446118798: Event_283: system.switch_cpus1 progress event, total committed:247429375, progress insts committed: 16451606, IPC: 01.64352
15000446118798: Event_282: system.switch_cpus0 progress event, total committed:247429337, progress insts committed: 16451524, IPC: 01.64351
15003779452131: Event_282: system.switch_cpus0 progress event, total committed:263845755, progress insts committed: 16416418, IPC: 00001.64
15003779452131: Event_283: system.switch_cpus1 progress event, total committed:263845755, progress insts committed: 16416380, IPC: 00001.64
15003779452131: Event_284: system.switch_cpus2 progress event, total committed:263799179, progress insts committed: 16407789, IPC: 01.63914
15003779452131: Event_285: system.switch_cpus3 progress event, total committed:263799207, progress insts committed: 16407865, IPC: 01.63915
15007112785464: Event_285: system.switch_cpus3 progress event, total committed:280181214, progress insts committed: 16382007, IPC: 01.63656
15007112785464: Event_284: system.switch_cpus2 progress event, total committed:280181214, progress insts committed: 16382035, IPC: 01.63657
15007112785464: Event_283: system.switch_cpus1 progress event, total committed:280244981, progress insts committed: 16399226, IPC: 01.63828
15007112785464: Event_282: system.switch_cpus0 progress event, total committed:280244977, progress insts committed: 16399222, IPC: 01.63828
15010446118797: Event_282: system.switch_cpus0 progress event, total committed:296797172, progress insts committed: 16552195, IPC: 01.65356
15010446118797: Event_283: system.switch_cpus1 progress event, total committed:296797137, progress insts committed: 16552156, IPC: 01.65356
15010446118797: Event_284: system.switch_cpus2 progress event, total committed:296644410, progress insts committed: 16463196, IPC: 01.64467
15010446118797: Event_285: system.switch_cpus3 progress event, total committed:296644377, progress insts committed: 16463163, IPC: 01.64467
15013779452130: Event_285: system.switch_cpus3 progress event, total committed:313188587, progress insts committed: 16544210, IPC: 01.65277
15013779452130: Event_284: system.switch_cpus2 progress event, total committed:313188594, progress insts committed: 16544184, IPC: 01.65276
15013779452130: Event_283: system.switch_cpus1 progress event, total committed:313333238, progress insts committed: 16536101, IPC: 01.65196
15013779452130: Event_282: system.switch_cpus0 progress event, total committed:313333241, progress insts committed: 16536069, IPC: 01.65195
15017112785463: Event_282: system.switch_cpus0 progress event, total committed:329794177, progress insts committed: 16460936, IPC: 01.64445
15017112785463: Event_283: system.switch_cpus1 progress event, total committed:329794135, progress insts committed: 16460897, IPC: 01.64444
15017112785463: Event_284: system.switch_cpus2 progress event, total committed:329646320, progress insts committed: 16457726, IPC: 01.64413
15017112785463: Event_285: system.switch_cpus3 progress event, total committed:329646320, progress insts committed: 16457733, IPC: 01.64413
15020446118796: Event_285: system.switch_cpus3 progress event, total committed:346139108, progress insts committed: 16492788, IPC: 01.64763
15020446118796: Event_284: system.switch_cpus2 progress event, total committed:346139114, progress insts committed: 16492794, IPC: 01.64763
15020446118796: Event_283: system.switch_cpus1 progress event, total committed:346291453, progress insts committed: 16497318, IPC: 01.64808
15020446118796: Event_282: system.switch_cpus0 progress event, total committed:346291461, progress insts committed: 16497284, IPC: 01.64808
15023779452129: Event_282: system.switch_cpus0 progress event, total committed:362643184, progress insts committed: 16351723, IPC: 01.63354
15023779452129: Event_283: system.switch_cpus1 progress event, total committed:362643210, progress insts committed: 16351757, IPC: 01.63354
15023779452129: Event_284: system.switch_cpus2 progress event, total committed:362471962, progress insts committed: 16332848, IPC: 01.63165
15023779452129: Event_285: system.switch_cpus3 progress event, total committed:362472000, progress insts committed: 16332892, IPC: 01.63166
Exiting @ tick 15023798015814 because a thread reached the max instruction count
