
---------- Begin Simulation Statistics ----------
final_tick                               13975166281230                       # Number of ticks from beginning of simulation (restored from checkpoints and never reset)
host_inst_rate                                 183009                       # Simulator instruction rate (inst/s)
host_mem_usage                               17257256                       # Number of bytes of host memory used
host_op_rate                                   275822                       # Simulator op (including micro ops) rate (op/s)
host_seconds                                  4255.39                       # Real time elapsed on the host
host_tick_rate                                7051723                       # Simulator tick rate (ticks/s)
sim_freq                                 1000000000000                       # Frequency of simulated ticks
sim_insts                                   778775289                       # Number of instructions simulated
sim_ops                                    1173727808                       # Number of ops (including micro ops) simulated
sim_seconds                                  0.030008                       # Number of seconds simulated
sim_ticks                                 30007797498                       # Number of ticks simulated
system.cpu0.Branches                                2                       # Number of branches fetched
system.cpu0.committedInsts                         16                       # Number of instructions committed
system.cpu0.committedOps                           26                       # Number of ops (including micro ops) committed
system.cpu0.idle_fraction                           0                       # Percentage of idle cycles
system.cpu0.l2bus.snoop_filter.hit_multi_requests         9804                       # Number of requests hitting in the snoop filter with multiple (>1) holders of the requested data.
system.cpu0.l2bus.snoop_filter.hit_multi_snoops            0                       # Number of snoops hitting in the snoop filter with multiple (>1) holders of the requested data.
system.cpu0.l2bus.snoop_filter.hit_single_requests      1558078                       # Number of requests hitting in the snoop filter with a single holder of the requested data.
system.cpu0.l2bus.snoop_filter.hit_single_snoops            1                       # Number of snoops hitting in the snoop filter with a single holder of the requested data.
system.cpu0.l2bus.snoop_filter.tot_requests      3117153                       # Total number of requests made to the snoop filter.
system.cpu0.l2bus.snoop_filter.tot_snoops            1                       # Total number of snoops made to the snoop filter.
system.cpu0.mmucache.mmubus.snoop_filter.hit_multi_requests            0                       # Number of requests hitting in the snoop filter with multiple (>1) holders of the requested data.
system.cpu0.mmucache.mmubus.snoop_filter.hit_multi_snoops            0                       # Number of snoops hitting in the snoop filter with multiple (>1) holders of the requested data.
system.cpu0.mmucache.mmubus.snoop_filter.hit_single_requests            0                       # Number of requests hitting in the snoop filter with a single holder of the requested data.
system.cpu0.mmucache.mmubus.snoop_filter.hit_single_snoops            0                       # Number of snoops hitting in the snoop filter with a single holder of the requested data.
system.cpu0.mmucache.mmubus.snoop_filter.tot_requests            0                       # Total number of requests made to the snoop filter.
system.cpu0.mmucache.mmubus.snoop_filter.tot_snoops            0                       # Total number of snoops made to the snoop filter.
system.cpu0.not_idle_fraction                       1                       # Percentage of non-idle cycles
system.cpu0.numCycles                              31                       # number of cpu cycles simulated
system.cpu0.numWorkItemsCompleted                   0                       # number of work items this cpu completed
system.cpu0.numWorkItemsStarted                     0                       # number of work items this cpu started
system.cpu0.num_busy_cycles                        31                       # Number of busy cycles
system.cpu0.num_cc_register_reads                   7                       # number of times the CC registers were read
system.cpu0.num_cc_register_writes                  6                       # number of times the CC registers were written
system.cpu0.num_conditional_control_insts            1                       # number of instructions that are conditional controls
system.cpu0.num_fp_alu_accesses                     6                       # Number of float alu accesses
system.cpu0.num_fp_insts                            6                       # number of float instructions
system.cpu0.num_fp_register_reads                   6                       # number of times the floating registers were read
system.cpu0.num_fp_register_writes                  6                       # number of times the floating registers were written
system.cpu0.num_func_calls                          1                       # number of times a function call or return occured
system.cpu0.num_idle_cycles                         0                       # Number of idle cycles
system.cpu0.num_int_alu_accesses                   24                       # Number of integer alu accesses
system.cpu0.num_int_insts                          24                       # number of integer instructions
system.cpu0.num_int_register_reads                 57                       # number of times the integer registers were read
system.cpu0.num_int_register_writes                15                       # number of times the integer registers were written
system.cpu0.num_load_insts                          8                       # Number of load instructions
system.cpu0.num_mem_refs                           11                       # number of memory refs
system.cpu0.num_store_insts                         3                       # Number of store instructions
system.cpu0.num_vec_alu_accesses                    0                       # Number of vector alu accesses
system.cpu0.num_vec_insts                           0                       # number of vector instructions
system.cpu0.num_vec_register_reads                  0                       # number of times the vector registers were read
system.cpu0.num_vec_register_writes                 0                       # number of times the vector registers were written
system.cpu0.op_class::No_OpClass                    0      0.00%      0.00% # Class of executed instruction
system.cpu0.op_class::IntAlu                       13     50.00%     50.00% # Class of executed instruction
system.cpu0.op_class::IntMult                       0      0.00%     50.00% # Class of executed instruction
system.cpu0.op_class::IntDiv                        0      0.00%     50.00% # Class of executed instruction
system.cpu0.op_class::FloatAdd                      0      0.00%     50.00% # Class of executed instruction
system.cpu0.op_class::FloatCmp                      0      0.00%     50.00% # Class of executed instruction
system.cpu0.op_class::FloatCvt                      0      0.00%     50.00% # Class of executed instruction
system.cpu0.op_class::FloatMult                     0      0.00%     50.00% # Class of executed instruction
system.cpu0.op_class::FloatMultAcc                  0      0.00%     50.00% # Class of executed instruction
system.cpu0.op_class::FloatDiv                      0      0.00%     50.00% # Class of executed instruction
system.cpu0.op_class::FloatMisc                     0      0.00%     50.00% # Class of executed instruction
system.cpu0.op_class::FloatSqrt                     0      0.00%     50.00% # Class of executed instruction
system.cpu0.op_class::SimdAdd                       0      0.00%     50.00% # Class of executed instruction
system.cpu0.op_class::SimdAddAcc                    0      0.00%     50.00% # Class of executed instruction
system.cpu0.op_class::SimdAlu                       0      0.00%     50.00% # Class of executed instruction
system.cpu0.op_class::SimdCmp                       0      0.00%     50.00% # Class of executed instruction
system.cpu0.op_class::SimdCvt                       0      0.00%     50.00% # Class of executed instruction
system.cpu0.op_class::SimdMisc                      0      0.00%     50.00% # Class of executed instruction
system.cpu0.op_class::SimdMult                      0      0.00%     50.00% # Class of executed instruction
system.cpu0.op_class::SimdMultAcc                   0      0.00%     50.00% # Class of executed instruction
system.cpu0.op_class::SimdShift                     0      0.00%     50.00% # Class of executed instruction
system.cpu0.op_class::SimdShiftAcc                  0      0.00%     50.00% # Class of executed instruction
system.cpu0.op_class::SimdDiv                       0      0.00%     50.00% # Class of executed instruction
system.cpu0.op_class::SimdSqrt                      0      0.00%     50.00% # Class of executed instruction
system.cpu0.op_class::SimdFloatAdd                  0      0.00%     50.00% # Class of executed instruction
system.cpu0.op_class::SimdFloatAlu                  0      0.00%     50.00% # Class of executed instruction
system.cpu0.op_class::SimdFloatCmp                  0      0.00%     50.00% # Class of executed instruction
system.cpu0.op_class::SimdFloatCvt                  0      0.00%     50.00% # Class of executed instruction
system.cpu0.op_class::SimdFloatDiv                  0      0.00%     50.00% # Class of executed instruction
system.cpu0.op_class::SimdFloatMisc                 0      0.00%     50.00% # Class of executed instruction
system.cpu0.op_class::SimdFloatMult                 2      7.69%     57.69% # Class of executed instruction
system.cpu0.op_class::SimdFloatMultAcc              0      0.00%     57.69% # Class of executed instruction
system.cpu0.op_class::SimdFloatSqrt                 0      0.00%     57.69% # Class of executed instruction
system.cpu0.op_class::SimdReduceAdd                 0      0.00%     57.69% # Class of executed instruction
system.cpu0.op_class::SimdReduceAlu                 0      0.00%     57.69% # Class of executed instruction
system.cpu0.op_class::SimdReduceCmp                 0      0.00%     57.69% # Class of executed instruction
system.cpu0.op_class::SimdFloatReduceAdd            0      0.00%     57.69% # Class of executed instruction
system.cpu0.op_class::SimdFloatReduceCmp            0      0.00%     57.69% # Class of executed instruction
system.cpu0.op_class::SimdAes                       0      0.00%     57.69% # Class of executed instruction
system.cpu0.op_class::SimdAesMix                    0      0.00%     57.69% # Class of executed instruction
system.cpu0.op_class::SimdSha1Hash                  0      0.00%     57.69% # Class of executed instruction
system.cpu0.op_class::SimdSha1Hash2                 0      0.00%     57.69% # Class of executed instruction
system.cpu0.op_class::SimdSha256Hash                0      0.00%     57.69% # Class of executed instruction
system.cpu0.op_class::SimdSha256Hash2               0      0.00%     57.69% # Class of executed instruction
system.cpu0.op_class::SimdShaSigma2                 0      0.00%     57.69% # Class of executed instruction
system.cpu0.op_class::SimdShaSigma3                 0      0.00%     57.69% # Class of executed instruction
system.cpu0.op_class::SimdPredAlu                   0      0.00%     57.69% # Class of executed instruction
system.cpu0.op_class::MemRead                       4     15.38%     73.08% # Class of executed instruction
system.cpu0.op_class::MemWrite                      3     11.54%     84.62% # Class of executed instruction
system.cpu0.op_class::FloatMemRead                  4     15.38%    100.00% # Class of executed instruction
system.cpu0.op_class::FloatMemWrite                 0      0.00%    100.00% # Class of executed instruction
system.cpu0.op_class::IprAccess                     0      0.00%    100.00% # Class of executed instruction
system.cpu0.op_class::InstPrefetch                  0      0.00%    100.00% # Class of executed instruction
system.cpu0.op_class::total                        26                       # Class of executed instruction
system.cpu0.workload.numSyscalls                    2                       # Number of system calls
system.cpu1.Branches                                1                       # Number of branches fetched
system.cpu1.committedInsts                         16                       # Number of instructions committed
system.cpu1.committedOps                           21                       # Number of ops (including micro ops) committed
system.cpu1.idle_fraction                           0                       # Percentage of idle cycles
system.cpu1.l2bus.snoop_filter.hit_multi_requests          116                       # Number of requests hitting in the snoop filter with multiple (>1) holders of the requested data.
system.cpu1.l2bus.snoop_filter.hit_multi_snoops            0                       # Number of snoops hitting in the snoop filter with multiple (>1) holders of the requested data.
system.cpu1.l2bus.snoop_filter.hit_single_requests      1272942                       # Number of requests hitting in the snoop filter with a single holder of the requested data.
system.cpu1.l2bus.snoop_filter.hit_single_snoops          418                       # Number of snoops hitting in the snoop filter with a single holder of the requested data.
system.cpu1.l2bus.snoop_filter.tot_requests      2541721                       # Total number of requests made to the snoop filter.
system.cpu1.l2bus.snoop_filter.tot_snoops          418                       # Total number of snoops made to the snoop filter.
system.cpu1.mmucache.mmubus.snoop_filter.hit_multi_requests            0                       # Number of requests hitting in the snoop filter with multiple (>1) holders of the requested data.
system.cpu1.mmucache.mmubus.snoop_filter.hit_multi_snoops            0                       # Number of snoops hitting in the snoop filter with multiple (>1) holders of the requested data.
system.cpu1.mmucache.mmubus.snoop_filter.hit_single_requests            0                       # Number of requests hitting in the snoop filter with a single holder of the requested data.
system.cpu1.mmucache.mmubus.snoop_filter.hit_single_snoops            0                       # Number of snoops hitting in the snoop filter with a single holder of the requested data.
system.cpu1.mmucache.mmubus.snoop_filter.tot_requests            0                       # Total number of requests made to the snoop filter.
system.cpu1.mmucache.mmubus.snoop_filter.tot_snoops            0                       # Total number of snoops made to the snoop filter.
system.cpu1.not_idle_fraction                       1                       # Percentage of non-idle cycles
system.cpu1.numCycles                              30                       # number of cpu cycles simulated
system.cpu1.numWorkItemsCompleted                   0                       # number of work items this cpu completed
system.cpu1.numWorkItemsStarted                     0                       # number of work items this cpu started
system.cpu1.num_busy_cycles                        30                       # Number of busy cycles
system.cpu1.num_cc_register_reads                   6                       # number of times the CC registers were read
system.cpu1.num_cc_register_writes                  6                       # number of times the CC registers were written
system.cpu1.num_conditional_control_insts            1                       # number of instructions that are conditional controls
system.cpu1.num_fp_alu_accesses                    10                       # Number of float alu accesses
system.cpu1.num_fp_insts                           10                       # number of float instructions
system.cpu1.num_fp_register_reads                  10                       # number of times the floating registers were read
system.cpu1.num_fp_register_writes                  6                       # number of times the floating registers were written
system.cpu1.num_func_calls                          0                       # number of times a function call or return occured
system.cpu1.num_idle_cycles                         0                       # Number of idle cycles
system.cpu1.num_int_alu_accesses                   19                       # Number of integer alu accesses
system.cpu1.num_int_insts                          19                       # number of integer instructions
system.cpu1.num_int_register_reads                 42                       # number of times the integer registers were read
system.cpu1.num_int_register_writes                10                       # number of times the integer registers were written
system.cpu1.num_load_insts                          6                       # Number of load instructions
system.cpu1.num_mem_refs                           10                       # number of memory refs
system.cpu1.num_store_insts                         4                       # Number of store instructions
system.cpu1.num_vec_alu_accesses                    0                       # Number of vector alu accesses
system.cpu1.num_vec_insts                           0                       # number of vector instructions
system.cpu1.num_vec_register_reads                  0                       # number of times the vector registers were read
system.cpu1.num_vec_register_writes                 0                       # number of times the vector registers were written
system.cpu1.op_class::No_OpClass                    0      0.00%      0.00% # Class of executed instruction
system.cpu1.op_class::IntAlu                        9     42.86%     42.86% # Class of executed instruction
system.cpu1.op_class::IntMult                       0      0.00%     42.86% # Class of executed instruction
system.cpu1.op_class::IntDiv                        0      0.00%     42.86% # Class of executed instruction
system.cpu1.op_class::FloatAdd                      0      0.00%     42.86% # Class of executed instruction
system.cpu1.op_class::FloatCmp                      0      0.00%     42.86% # Class of executed instruction
system.cpu1.op_class::FloatCvt                      0      0.00%     42.86% # Class of executed instruction
system.cpu1.op_class::FloatMult                     0      0.00%     42.86% # Class of executed instruction
system.cpu1.op_class::FloatMultAcc                  0      0.00%     42.86% # Class of executed instruction
system.cpu1.op_class::FloatDiv                      0      0.00%     42.86% # Class of executed instruction
system.cpu1.op_class::FloatMisc                     0      0.00%     42.86% # Class of executed instruction
system.cpu1.op_class::FloatSqrt                     0      0.00%     42.86% # Class of executed instruction
system.cpu1.op_class::SimdAdd                       0      0.00%     42.86% # Class of executed instruction
system.cpu1.op_class::SimdAddAcc                    0      0.00%     42.86% # Class of executed instruction
system.cpu1.op_class::SimdAlu                       0      0.00%     42.86% # Class of executed instruction
system.cpu1.op_class::SimdCmp                       0      0.00%     42.86% # Class of executed instruction
system.cpu1.op_class::SimdCvt                       0      0.00%     42.86% # Class of executed instruction
system.cpu1.op_class::SimdMisc                      0      0.00%     42.86% # Class of executed instruction
system.cpu1.op_class::SimdMult                      0      0.00%     42.86% # Class of executed instruction
system.cpu1.op_class::SimdMultAcc                   0      0.00%     42.86% # Class of executed instruction
system.cpu1.op_class::SimdShift                     0      0.00%     42.86% # Class of executed instruction
system.cpu1.op_class::SimdShiftAcc                  0      0.00%     42.86% # Class of executed instruction
system.cpu1.op_class::SimdDiv                       0      0.00%     42.86% # Class of executed instruction
system.cpu1.op_class::SimdSqrt                      0      0.00%     42.86% # Class of executed instruction
system.cpu1.op_class::SimdFloatAdd                  2      9.52%     52.38% # Class of executed instruction
system.cpu1.op_class::SimdFloatAlu                  0      0.00%     52.38% # Class of executed instruction
system.cpu1.op_class::SimdFloatCmp                  0      0.00%     52.38% # Class of executed instruction
system.cpu1.op_class::SimdFloatCvt                  0      0.00%     52.38% # Class of executed instruction
system.cpu1.op_class::SimdFloatDiv                  0      0.00%     52.38% # Class of executed instruction
system.cpu1.op_class::SimdFloatMisc                 0      0.00%     52.38% # Class of executed instruction
system.cpu1.op_class::SimdFloatMult                 0      0.00%     52.38% # Class of executed instruction
system.cpu1.op_class::SimdFloatMultAcc              0      0.00%     52.38% # Class of executed instruction
system.cpu1.op_class::SimdFloatSqrt                 0      0.00%     52.38% # Class of executed instruction
system.cpu1.op_class::SimdReduceAdd                 0      0.00%     52.38% # Class of executed instruction
system.cpu1.op_class::SimdReduceAlu                 0      0.00%     52.38% # Class of executed instruction
system.cpu1.op_class::SimdReduceCmp                 0      0.00%     52.38% # Class of executed instruction
system.cpu1.op_class::SimdFloatReduceAdd            0      0.00%     52.38% # Class of executed instruction
system.cpu1.op_class::SimdFloatReduceCmp            0      0.00%     52.38% # Class of executed instruction
system.cpu1.op_class::SimdAes                       0      0.00%     52.38% # Class of executed instruction
system.cpu1.op_class::SimdAesMix                    0      0.00%     52.38% # Class of executed instruction
system.cpu1.op_class::SimdSha1Hash                  0      0.00%     52.38% # Class of executed instruction
system.cpu1.op_class::SimdSha1Hash2                 0      0.00%     52.38% # Class of executed instruction
system.cpu1.op_class::SimdSha256Hash                0      0.00%     52.38% # Class of executed instruction
system.cpu1.op_class::SimdSha256Hash2               0      0.00%     52.38% # Class of executed instruction
system.cpu1.op_class::SimdShaSigma2                 0      0.00%     52.38% # Class of executed instruction
system.cpu1.op_class::SimdShaSigma3                 0      0.00%     52.38% # Class of executed instruction
system.cpu1.op_class::SimdPredAlu                   0      0.00%     52.38% # Class of executed instruction
system.cpu1.op_class::MemRead                       2      9.52%     61.90% # Class of executed instruction
system.cpu1.op_class::MemWrite                      0      0.00%     61.90% # Class of executed instruction
system.cpu1.op_class::FloatMemRead                  4     19.05%     80.95% # Class of executed instruction
system.cpu1.op_class::FloatMemWrite                 4     19.05%    100.00% # Class of executed instruction
system.cpu1.op_class::IprAccess                     0      0.00%    100.00% # Class of executed instruction
system.cpu1.op_class::InstPrefetch                  0      0.00%    100.00% # Class of executed instruction
system.cpu1.op_class::total                        21                       # Class of executed instruction
system.cpu1.workload.numSyscalls                    0                       # Number of system calls
system.cpu2.committedInsts                         17                       # Number of instructions committed
system.cpu2.committedOps                           20                       # Number of ops (including micro ops) committed
system.cpu2.idle_fraction                           0                       # Percentage of idle cycles
system.cpu2.l2bus.snoop_filter.hit_multi_requests            0                       # Number of requests hitting in the snoop filter with multiple (>1) holders of the requested data.
system.cpu2.l2bus.snoop_filter.hit_multi_snoops            0                       # Number of snoops hitting in the snoop filter with multiple (>1) holders of the requested data.
system.cpu2.l2bus.snoop_filter.hit_single_requests      1227055                       # Number of requests hitting in the snoop filter with a single holder of the requested data.
system.cpu2.l2bus.snoop_filter.hit_single_snoops          885                       # Number of snoops hitting in the snoop filter with a single holder of the requested data.
system.cpu2.l2bus.snoop_filter.tot_requests      2438336                       # Total number of requests made to the snoop filter.
system.cpu2.l2bus.snoop_filter.tot_snoops          885                       # Total number of snoops made to the snoop filter.
system.cpu2.mmucache.mmubus.snoop_filter.hit_multi_requests            0                       # Number of requests hitting in the snoop filter with multiple (>1) holders of the requested data.
system.cpu2.mmucache.mmubus.snoop_filter.hit_multi_snoops            0                       # Number of snoops hitting in the snoop filter with multiple (>1) holders of the requested data.
system.cpu2.mmucache.mmubus.snoop_filter.hit_single_requests            0                       # Number of requests hitting in the snoop filter with a single holder of the requested data.
system.cpu2.mmucache.mmubus.snoop_filter.hit_single_snoops            0                       # Number of snoops hitting in the snoop filter with a single holder of the requested data.
system.cpu2.mmucache.mmubus.snoop_filter.tot_requests            0                       # Total number of requests made to the snoop filter.
system.cpu2.mmucache.mmubus.snoop_filter.tot_snoops            0                       # Total number of snoops made to the snoop filter.
system.cpu2.not_idle_fraction                       1                       # Percentage of non-idle cycles
system.cpu2.numCycles                              30                       # number of cpu cycles simulated
system.cpu2.numWorkItemsCompleted                   0                       # number of work items this cpu completed
system.cpu2.numWorkItemsStarted                     0                       # number of work items this cpu started
system.cpu2.num_busy_cycles                        30                       # Number of busy cycles
system.cpu2.num_cc_register_reads                   1                       # number of times the CC registers were read
system.cpu2.num_cc_register_writes                  4                       # number of times the CC registers were written
system.cpu2.num_conditional_control_insts            0                       # number of instructions that are conditional controls
system.cpu2.num_fp_alu_accesses                    10                       # Number of float alu accesses
system.cpu2.num_fp_insts                           10                       # number of float instructions
system.cpu2.num_fp_register_reads                  21                       # number of times the floating registers were read
system.cpu2.num_fp_register_writes                  9                       # number of times the floating registers were written
system.cpu2.num_func_calls                          0                       # number of times a function call or return occured
system.cpu2.num_idle_cycles                         0                       # Number of idle cycles
system.cpu2.num_int_alu_accesses                   13                       # Number of integer alu accesses
system.cpu2.num_int_insts                          13                       # number of integer instructions
system.cpu2.num_int_register_reads                 32                       # number of times the integer registers were read
system.cpu2.num_int_register_writes                10                       # number of times the integer registers were written
system.cpu2.num_load_insts                          8                       # Number of load instructions
system.cpu2.num_mem_refs                            9                       # number of memory refs
system.cpu2.num_store_insts                         1                       # Number of store instructions
system.cpu2.num_vec_alu_accesses                    0                       # Number of vector alu accesses
system.cpu2.num_vec_insts                           0                       # number of vector instructions
system.cpu2.num_vec_register_reads                  0                       # number of times the vector registers were read
system.cpu2.num_vec_register_writes                 0                       # number of times the vector registers were written
system.cpu2.op_class::No_OpClass                    0      0.00%      0.00% # Class of executed instruction
system.cpu2.op_class::IntAlu                        5     25.00%     25.00% # Class of executed instruction
system.cpu2.op_class::IntMult                       0      0.00%     25.00% # Class of executed instruction
system.cpu2.op_class::IntDiv                        0      0.00%     25.00% # Class of executed instruction
system.cpu2.op_class::FloatAdd                      0      0.00%     25.00% # Class of executed instruction
system.cpu2.op_class::FloatCmp                      0      0.00%     25.00% # Class of executed instruction
system.cpu2.op_class::FloatCvt                      0      0.00%     25.00% # Class of executed instruction
system.cpu2.op_class::FloatMult                     0      0.00%     25.00% # Class of executed instruction
system.cpu2.op_class::FloatMultAcc                  0      0.00%     25.00% # Class of executed instruction
system.cpu2.op_class::FloatDiv                      0      0.00%     25.00% # Class of executed instruction
system.cpu2.op_class::FloatMisc                     0      0.00%     25.00% # Class of executed instruction
system.cpu2.op_class::FloatSqrt                     0      0.00%     25.00% # Class of executed instruction
system.cpu2.op_class::SimdAdd                       0      0.00%     25.00% # Class of executed instruction
system.cpu2.op_class::SimdAddAcc                    0      0.00%     25.00% # Class of executed instruction
system.cpu2.op_class::SimdAlu                       0      0.00%     25.00% # Class of executed instruction
system.cpu2.op_class::SimdCmp                       0      0.00%     25.00% # Class of executed instruction
system.cpu2.op_class::SimdCvt                       0      0.00%     25.00% # Class of executed instruction
system.cpu2.op_class::SimdMisc                      0      0.00%     25.00% # Class of executed instruction
system.cpu2.op_class::SimdMult                      0      0.00%     25.00% # Class of executed instruction
system.cpu2.op_class::SimdMultAcc                   0      0.00%     25.00% # Class of executed instruction
system.cpu2.op_class::SimdShift                     0      0.00%     25.00% # Class of executed instruction
system.cpu2.op_class::SimdShiftAcc                  0      0.00%     25.00% # Class of executed instruction
system.cpu2.op_class::SimdDiv                       0      0.00%     25.00% # Class of executed instruction
system.cpu2.op_class::SimdSqrt                      0      0.00%     25.00% # Class of executed instruction
system.cpu2.op_class::SimdFloatAdd                  2     10.00%     35.00% # Class of executed instruction
system.cpu2.op_class::SimdFloatAlu                  0      0.00%     35.00% # Class of executed instruction
system.cpu2.op_class::SimdFloatCmp                  0      0.00%     35.00% # Class of executed instruction
system.cpu2.op_class::SimdFloatCvt                  0      0.00%     35.00% # Class of executed instruction
system.cpu2.op_class::SimdFloatDiv                  1      5.00%     40.00% # Class of executed instruction
system.cpu2.op_class::SimdFloatMisc                 0      0.00%     40.00% # Class of executed instruction
system.cpu2.op_class::SimdFloatMult                 3     15.00%     55.00% # Class of executed instruction
system.cpu2.op_class::SimdFloatMultAcc              0      0.00%     55.00% # Class of executed instruction
system.cpu2.op_class::SimdFloatSqrt                 0      0.00%     55.00% # Class of executed instruction
system.cpu2.op_class::SimdReduceAdd                 0      0.00%     55.00% # Class of executed instruction
system.cpu2.op_class::SimdReduceAlu                 0      0.00%     55.00% # Class of executed instruction
system.cpu2.op_class::SimdReduceCmp                 0      0.00%     55.00% # Class of executed instruction
system.cpu2.op_class::SimdFloatReduceAdd            0      0.00%     55.00% # Class of executed instruction
system.cpu2.op_class::SimdFloatReduceCmp            0      0.00%     55.00% # Class of executed instruction
system.cpu2.op_class::SimdAes                       0      0.00%     55.00% # Class of executed instruction
system.cpu2.op_class::SimdAesMix                    0      0.00%     55.00% # Class of executed instruction
system.cpu2.op_class::SimdSha1Hash                  0      0.00%     55.00% # Class of executed instruction
system.cpu2.op_class::SimdSha1Hash2                 0      0.00%     55.00% # Class of executed instruction
system.cpu2.op_class::SimdSha256Hash                0      0.00%     55.00% # Class of executed instruction
system.cpu2.op_class::SimdSha256Hash2               0      0.00%     55.00% # Class of executed instruction
system.cpu2.op_class::SimdShaSigma2                 0      0.00%     55.00% # Class of executed instruction
system.cpu2.op_class::SimdShaSigma3                 0      0.00%     55.00% # Class of executed instruction
system.cpu2.op_class::SimdPredAlu                   0      0.00%     55.00% # Class of executed instruction
system.cpu2.op_class::MemRead                       6     30.00%     85.00% # Class of executed instruction
system.cpu2.op_class::MemWrite                      0      0.00%     85.00% # Class of executed instruction
system.cpu2.op_class::FloatMemRead                  2     10.00%     95.00% # Class of executed instruction
system.cpu2.op_class::FloatMemWrite                 1      5.00%    100.00% # Class of executed instruction
system.cpu2.op_class::IprAccess                     0      0.00%    100.00% # Class of executed instruction
system.cpu2.op_class::InstPrefetch                  0      0.00%    100.00% # Class of executed instruction
system.cpu2.op_class::total                        20                       # Class of executed instruction
system.cpu2.workload.numSyscalls                    0                       # Number of system calls
system.cpu3.committedInsts                         12                       # Number of instructions committed
system.cpu3.committedOps                           22                       # Number of ops (including micro ops) committed
system.cpu3.idle_fraction                           0                       # Percentage of idle cycles
system.cpu3.l2bus.snoop_filter.hit_multi_requests            4                       # Number of requests hitting in the snoop filter with multiple (>1) holders of the requested data.
system.cpu3.l2bus.snoop_filter.hit_multi_snoops            0                       # Number of snoops hitting in the snoop filter with multiple (>1) holders of the requested data.
system.cpu3.l2bus.snoop_filter.hit_single_requests      1110144                       # Number of requests hitting in the snoop filter with a single holder of the requested data.
system.cpu3.l2bus.snoop_filter.hit_single_snoops         2849                       # Number of snoops hitting in the snoop filter with a single holder of the requested data.
system.cpu3.l2bus.snoop_filter.tot_requests      2220937                       # Total number of requests made to the snoop filter.
system.cpu3.l2bus.snoop_filter.tot_snoops         2849                       # Total number of snoops made to the snoop filter.
system.cpu3.mmucache.mmubus.snoop_filter.hit_multi_requests            0                       # Number of requests hitting in the snoop filter with multiple (>1) holders of the requested data.
system.cpu3.mmucache.mmubus.snoop_filter.hit_multi_snoops            0                       # Number of snoops hitting in the snoop filter with multiple (>1) holders of the requested data.
system.cpu3.mmucache.mmubus.snoop_filter.hit_single_requests            0                       # Number of requests hitting in the snoop filter with a single holder of the requested data.
system.cpu3.mmucache.mmubus.snoop_filter.hit_single_snoops            0                       # Number of snoops hitting in the snoop filter with a single holder of the requested data.
system.cpu3.mmucache.mmubus.snoop_filter.tot_requests            0                       # Total number of requests made to the snoop filter.
system.cpu3.mmucache.mmubus.snoop_filter.tot_snoops            0                       # Total number of snoops made to the snoop filter.
system.cpu3.not_idle_fraction                       1                       # Percentage of non-idle cycles
system.cpu3.numCycles                              30                       # number of cpu cycles simulated
system.cpu3.numWorkItemsCompleted                   0                       # number of work items this cpu completed
system.cpu3.numWorkItemsStarted                     0                       # number of work items this cpu started
system.cpu3.num_busy_cycles                        30                       # Number of busy cycles
system.cpu3.num_conditional_control_insts            0                       # number of instructions that are conditional controls
system.cpu3.num_fp_alu_accesses                    17                       # Number of float alu accesses
system.cpu3.num_fp_insts                           17                       # number of float instructions
system.cpu3.num_fp_register_reads                  36                       # number of times the floating registers were read
system.cpu3.num_fp_register_writes                 17                       # number of times the floating registers were written
system.cpu3.num_func_calls                          0                       # number of times a function call or return occured
system.cpu3.num_idle_cycles                         0                       # Number of idle cycles
system.cpu3.num_int_alu_accesses                   10                       # Number of integer alu accesses
system.cpu3.num_int_insts                          10                       # number of integer instructions
system.cpu3.num_int_register_reads                 20                       # number of times the integer registers were read
system.cpu3.num_int_register_writes                 5                       # number of times the integer registers were written
system.cpu3.num_load_insts                          5                       # Number of load instructions
system.cpu3.num_mem_refs                            5                       # number of memory refs
system.cpu3.num_store_insts                         0                       # Number of store instructions
system.cpu3.num_vec_alu_accesses                    0                       # Number of vector alu accesses
system.cpu3.num_vec_insts                           0                       # number of vector instructions
system.cpu3.num_vec_register_reads                  0                       # number of times the vector registers were read
system.cpu3.num_vec_register_writes                 0                       # number of times the vector registers were written
system.cpu3.op_class::No_OpClass                    0      0.00%      0.00% # Class of executed instruction
system.cpu3.op_class::IntAlu                        5     22.73%     22.73% # Class of executed instruction
system.cpu3.op_class::IntMult                       0      0.00%     22.73% # Class of executed instruction
system.cpu3.op_class::IntDiv                        0      0.00%     22.73% # Class of executed instruction
system.cpu3.op_class::FloatAdd                      0      0.00%     22.73% # Class of executed instruction
system.cpu3.op_class::FloatCmp                      0      0.00%     22.73% # Class of executed instruction
system.cpu3.op_class::FloatCvt                      0      0.00%     22.73% # Class of executed instruction
system.cpu3.op_class::FloatMult                     0      0.00%     22.73% # Class of executed instruction
system.cpu3.op_class::FloatMultAcc                  0      0.00%     22.73% # Class of executed instruction
system.cpu3.op_class::FloatDiv                      0      0.00%     22.73% # Class of executed instruction
system.cpu3.op_class::FloatMisc                     0      0.00%     22.73% # Class of executed instruction
system.cpu3.op_class::FloatSqrt                     0      0.00%     22.73% # Class of executed instruction
system.cpu3.op_class::SimdAdd                       0      0.00%     22.73% # Class of executed instruction
system.cpu3.op_class::SimdAddAcc                    0      0.00%     22.73% # Class of executed instruction
system.cpu3.op_class::SimdAlu                       0      0.00%     22.73% # Class of executed instruction
system.cpu3.op_class::SimdCmp                       0      0.00%     22.73% # Class of executed instruction
system.cpu3.op_class::SimdCvt                       0      0.00%     22.73% # Class of executed instruction
system.cpu3.op_class::SimdMisc                      0      0.00%     22.73% # Class of executed instruction
system.cpu3.op_class::SimdMult                      0      0.00%     22.73% # Class of executed instruction
system.cpu3.op_class::SimdMultAcc                   0      0.00%     22.73% # Class of executed instruction
system.cpu3.op_class::SimdShift                     0      0.00%     22.73% # Class of executed instruction
system.cpu3.op_class::SimdShiftAcc                  0      0.00%     22.73% # Class of executed instruction
system.cpu3.op_class::SimdDiv                       0      0.00%     22.73% # Class of executed instruction
system.cpu3.op_class::SimdSqrt                      0      0.00%     22.73% # Class of executed instruction
system.cpu3.op_class::SimdFloatAdd                  5     22.73%     45.45% # Class of executed instruction
system.cpu3.op_class::SimdFloatAlu                  0      0.00%     45.45% # Class of executed instruction
system.cpu3.op_class::SimdFloatCmp                  0      0.00%     45.45% # Class of executed instruction
system.cpu3.op_class::SimdFloatCvt                  0      0.00%     45.45% # Class of executed instruction
system.cpu3.op_class::SimdFloatDiv                  0      0.00%     45.45% # Class of executed instruction
system.cpu3.op_class::SimdFloatMisc                 0      0.00%     45.45% # Class of executed instruction
system.cpu3.op_class::SimdFloatMult                 7     31.82%     77.27% # Class of executed instruction
system.cpu3.op_class::SimdFloatMultAcc              0      0.00%     77.27% # Class of executed instruction
system.cpu3.op_class::SimdFloatSqrt                 0      0.00%     77.27% # Class of executed instruction
system.cpu3.op_class::SimdReduceAdd                 0      0.00%     77.27% # Class of executed instruction
system.cpu3.op_class::SimdReduceAlu                 0      0.00%     77.27% # Class of executed instruction
system.cpu3.op_class::SimdReduceCmp                 0      0.00%     77.27% # Class of executed instruction
system.cpu3.op_class::SimdFloatReduceAdd            0      0.00%     77.27% # Class of executed instruction
system.cpu3.op_class::SimdFloatReduceCmp            0      0.00%     77.27% # Class of executed instruction
system.cpu3.op_class::SimdAes                       0      0.00%     77.27% # Class of executed instruction
system.cpu3.op_class::SimdAesMix                    0      0.00%     77.27% # Class of executed instruction
system.cpu3.op_class::SimdSha1Hash                  0      0.00%     77.27% # Class of executed instruction
system.cpu3.op_class::SimdSha1Hash2                 0      0.00%     77.27% # Class of executed instruction
system.cpu3.op_class::SimdSha256Hash                0      0.00%     77.27% # Class of executed instruction
system.cpu3.op_class::SimdSha256Hash2               0      0.00%     77.27% # Class of executed instruction
system.cpu3.op_class::SimdShaSigma2                 0      0.00%     77.27% # Class of executed instruction
system.cpu3.op_class::SimdShaSigma3                 0      0.00%     77.27% # Class of executed instruction
system.cpu3.op_class::SimdPredAlu                   0      0.00%     77.27% # Class of executed instruction
system.cpu3.op_class::MemRead                       0      0.00%     77.27% # Class of executed instruction
system.cpu3.op_class::MemWrite                      0      0.00%     77.27% # Class of executed instruction
system.cpu3.op_class::FloatMemRead                  5     22.73%    100.00% # Class of executed instruction
system.cpu3.op_class::FloatMemWrite                 0      0.00%    100.00% # Class of executed instruction
system.cpu3.op_class::IprAccess                     0      0.00%    100.00% # Class of executed instruction
system.cpu3.op_class::InstPrefetch                  0      0.00%    100.00% # Class of executed instruction
system.cpu3.op_class::total                        22                       # Class of executed instruction
system.cpu3.workload.numSyscalls                    0                       # Number of system calls
system.l3bus.snoop_filter.hit_multi_requests            0                       # Number of requests hitting in the snoop filter with multiple (>1) holders of the requested data.
system.l3bus.snoop_filter.hit_multi_snoops            0                       # Number of snoops hitting in the snoop filter with multiple (>1) holders of the requested data.
system.l3bus.snoop_filter.hit_single_requests      1260074                       # Number of requests hitting in the snoop filter with a single holder of the requested data.
system.l3bus.snoop_filter.hit_single_snoops            0                       # Number of snoops hitting in the snoop filter with a single holder of the requested data.
system.l3bus.snoop_filter.tot_requests        2535571                       # Total number of requests made to the snoop filter.
system.l3bus.snoop_filter.tot_snoops                0                       # Total number of snoops made to the snoop filter.
system.membus.snoop_filter.hit_multi_requests            0                       # Number of requests hitting in the snoop filter with multiple (>1) holders of the requested data.
system.membus.snoop_filter.hit_multi_snoops            0                       # Number of snoops hitting in the snoop filter with multiple (>1) holders of the requested data.
system.membus.snoop_filter.hit_single_requests       738572                       # Number of requests hitting in the snoop filter with a single holder of the requested data.
system.membus.snoop_filter.hit_single_snoops            0                       # Number of snoops hitting in the snoop filter with a single holder of the requested data.
system.membus.snoop_filter.tot_requests       1555398                       # Total number of requests made to the snoop filter.
system.membus.snoop_filter.tot_snoops               0                       # Total number of snoops made to the snoop filter.
system.switch_cpus0.cc_regfile_reads        184427451                       # number of cc regfile reads
system.switch_cpus0.cc_regfile_writes        90606788                       # number of cc regfile writes
system.switch_cpus0.committedInsts          224952038                       # Number of Instructions Simulated
system.switch_cpus0.committedOps            405451945                       # Number of Ops (including micro ops) Simulated
system.switch_cpus0.cpi                      0.400590                       # CPI: Cycles Per Instruction
system.switch_cpus0.cpi_total                0.400590                       # CPI: Total CPI of All Threads
system.switch_cpus0.fp_regfile_reads        132387460                       # number of floating regfile reads
system.switch_cpus0.fp_regfile_writes        76018986                       # number of floating regfile writes
system.switch_cpus0.idleCycles                  86881                       # Total number of cycles that the CPU has spent unscheduled due to idling
system.switch_cpus0.iew.branchMispredicts       981886                       # Number of branch mispredicts detected at execute
system.switch_cpus0.iew.exec_branches        41716839                       # Number of branches executed
system.switch_cpus0.iew.exec_nop                    0                       # number of nop insts executed
system.switch_cpus0.iew.exec_rate            4.801440                       # Inst execution rate
system.switch_cpus0.iew.exec_refs           126862427                       # number of memory reference insts executed
system.switch_cpus0.iew.exec_stores          38543984                       # Number of stores executed
system.switch_cpus0.iew.exec_swp                    0                       # number of swp insts executed
system.switch_cpus0.iew.iewBlockCycles        5789205                       # Number of cycles IEW is blocking
system.switch_cpus0.iew.iewDispLoadInsts     92636709                       # Number of dispatched load instructions
system.switch_cpus0.iew.iewDispNonSpecInsts            7                       # Number of dispatched non-speculative instructions
system.switch_cpus0.iew.iewDispSquashedInsts          266                       # Number of squashed instructions skipped by dispatch
system.switch_cpus0.iew.iewDispStoreInsts     40967852                       # Number of dispatched store instructions
system.switch_cpus0.iew.iewDispatchedInsts    452949213                       # Number of instructions dispatched to IQ
system.switch_cpus0.iew.iewExecLoadInsts     88318443                       # Number of load instructions executed
system.switch_cpus0.iew.iewExecSquashedInsts      2662975                       # Number of squashed instructions skipped in execute
system.switch_cpus0.iew.iewExecutedInsts    432674424                       # Number of executed instructions
system.switch_cpus0.iew.iewIQFullEvents          9690                       # Number of times the IQ has become full, causing a stall
system.switch_cpus0.iew.iewIdleCycles               0                       # Number of cycles IEW is idle
system.switch_cpus0.iew.iewLSQFullEvents       160641                       # Number of times the LSQ has become full, causing a stall
system.switch_cpus0.iew.iewSquashCycles        891447                       # Number of cycles IEW is squashing
system.switch_cpus0.iew.iewUnblockCycles       174023                       # Number of cycles IEW is unblocking
system.switch_cpus0.iew.memOrderViolationEvents        16677                       # Number of memory order violations
system.switch_cpus0.iew.predictedNotTakenIncorrect       631439                       # Number of branches that were predicted not taken incorrectly
system.switch_cpus0.iew.predictedTakenIncorrect       350447                       # Number of branches that were predicted taken incorrectly
system.switch_cpus0.iew.wb_consumers        565817927                       # num instructions consuming a value
system.switch_cpus0.iew.wb_count            431083651                       # cumulative count of insts written-back
system.switch_cpus0.iew.wb_fanout            0.567262                       # average fanout of values written-back
system.switch_cpus0.iew.wb_producers        320967263                       # num instructions producing a value
system.switch_cpus0.iew.wb_rate              4.783787                       # insts written-back per cycle
system.switch_cpus0.iew.wb_sent             432193946                       # cumulative count of insts sent to commit
system.switch_cpus0.int_regfile_reads       598801116                       # number of integer regfile reads
system.switch_cpus0.int_regfile_writes      269871316                       # number of integer regfile writes
system.switch_cpus0.ipc                      2.496320                       # IPC: Instructions Per Cycle
system.switch_cpus0.ipc_total                2.496320                       # IPC: Total IPC of All Threads
system.switch_cpus0.iq.FU_type_0::No_OpClass      2329021      0.53%      0.53% # Type of FU issued
system.switch_cpus0.iq.FU_type_0::IntAlu    260918499     59.93%     60.47% # Type of FU issued
system.switch_cpus0.iq.FU_type_0::IntMult       893976      0.21%     60.68% # Type of FU issued
system.switch_cpus0.iq.FU_type_0::IntDiv            7      0.00%     60.68% # Type of FU issued
system.switch_cpus0.iq.FU_type_0::FloatAdd      1177830      0.27%     60.95% # Type of FU issued
system.switch_cpus0.iq.FU_type_0::FloatCmp            0      0.00%     60.95% # Type of FU issued
system.switch_cpus0.iq.FU_type_0::FloatCvt            0      0.00%     60.95% # Type of FU issued
system.switch_cpus0.iq.FU_type_0::FloatMult            0      0.00%     60.95% # Type of FU issued
system.switch_cpus0.iq.FU_type_0::FloatMultAcc            0      0.00%     60.95% # Type of FU issued
system.switch_cpus0.iq.FU_type_0::FloatDiv            0      0.00%     60.95% # Type of FU issued
system.switch_cpus0.iq.FU_type_0::FloatMisc            0      0.00%     60.95% # Type of FU issued
system.switch_cpus0.iq.FU_type_0::FloatSqrt            0      0.00%     60.95% # Type of FU issued
system.switch_cpus0.iq.FU_type_0::SimdAdd            0      0.00%     60.95% # Type of FU issued
system.switch_cpus0.iq.FU_type_0::SimdAddAcc            0      0.00%     60.95% # Type of FU issued
system.switch_cpus0.iq.FU_type_0::SimdAlu      2793942      0.64%     61.59% # Type of FU issued
system.switch_cpus0.iq.FU_type_0::SimdCmp            0      0.00%     61.59% # Type of FU issued
system.switch_cpus0.iq.FU_type_0::SimdCvt            0      0.00%     61.59% # Type of FU issued
system.switch_cpus0.iq.FU_type_0::SimdMisc       195296      0.04%     61.63% # Type of FU issued
system.switch_cpus0.iq.FU_type_0::SimdMult            0      0.00%     61.63% # Type of FU issued
system.switch_cpus0.iq.FU_type_0::SimdMultAcc            0      0.00%     61.63% # Type of FU issued
system.switch_cpus0.iq.FU_type_0::SimdShift            0      0.00%     61.63% # Type of FU issued
system.switch_cpus0.iq.FU_type_0::SimdShiftAcc            0      0.00%     61.63% # Type of FU issued
system.switch_cpus0.iq.FU_type_0::SimdDiv            0      0.00%     61.63% # Type of FU issued
system.switch_cpus0.iq.FU_type_0::SimdSqrt            0      0.00%     61.63% # Type of FU issued
system.switch_cpus0.iq.FU_type_0::SimdFloatAdd     15685054      3.60%     65.24% # Type of FU issued
system.switch_cpus0.iq.FU_type_0::SimdFloatAlu            0      0.00%     65.24% # Type of FU issued
system.switch_cpus0.iq.FU_type_0::SimdFloatCmp        53495      0.01%     65.25% # Type of FU issued
system.switch_cpus0.iq.FU_type_0::SimdFloatCvt      6857770      1.58%     66.82% # Type of FU issued
system.switch_cpus0.iq.FU_type_0::SimdFloatDiv       537961      0.12%     66.95% # Type of FU issued
system.switch_cpus0.iq.FU_type_0::SimdFloatMisc            0      0.00%     66.95% # Type of FU issued
system.switch_cpus0.iq.FU_type_0::SimdFloatMult     15592327      3.58%     70.53% # Type of FU issued
system.switch_cpus0.iq.FU_type_0::SimdFloatMultAcc            0      0.00%     70.53% # Type of FU issued
system.switch_cpus0.iq.FU_type_0::SimdFloatSqrt        38781      0.01%     70.54% # Type of FU issued
system.switch_cpus0.iq.FU_type_0::SimdReduceAdd            0      0.00%     70.54% # Type of FU issued
system.switch_cpus0.iq.FU_type_0::SimdReduceAlu            0      0.00%     70.54% # Type of FU issued
system.switch_cpus0.iq.FU_type_0::SimdReduceCmp            0      0.00%     70.54% # Type of FU issued
system.switch_cpus0.iq.FU_type_0::SimdFloatReduceAdd            0      0.00%     70.54% # Type of FU issued
system.switch_cpus0.iq.FU_type_0::SimdFloatReduceCmp            0      0.00%     70.54% # Type of FU issued
system.switch_cpus0.iq.FU_type_0::SimdAes            0      0.00%     70.54% # Type of FU issued
system.switch_cpus0.iq.FU_type_0::SimdAesMix            0      0.00%     70.54% # Type of FU issued
system.switch_cpus0.iq.FU_type_0::SimdSha1Hash            0      0.00%     70.54% # Type of FU issued
system.switch_cpus0.iq.FU_type_0::SimdSha1Hash2            0      0.00%     70.54% # Type of FU issued
system.switch_cpus0.iq.FU_type_0::SimdSha256Hash            0      0.00%     70.54% # Type of FU issued
system.switch_cpus0.iq.FU_type_0::SimdSha256Hash2            0      0.00%     70.54% # Type of FU issued
system.switch_cpus0.iq.FU_type_0::SimdShaSigma2            0      0.00%     70.54% # Type of FU issued
system.switch_cpus0.iq.FU_type_0::SimdShaSigma3            0      0.00%     70.54% # Type of FU issued
system.switch_cpus0.iq.FU_type_0::SimdPredAlu            0      0.00%     70.54% # Type of FU issued
system.switch_cpus0.iq.FU_type_0::MemRead     55370902     12.72%     83.26% # Type of FU issued
system.switch_cpus0.iq.FU_type_0::MemWrite     32902192      7.56%     90.81% # Type of FU issued
system.switch_cpus0.iq.FU_type_0::FloatMemRead     34036965      7.82%     98.63% # Type of FU issued
system.switch_cpus0.iq.FU_type_0::FloatMemWrite      5953387      1.37%    100.00% # Type of FU issued
system.switch_cpus0.iq.FU_type_0::IprAccess            0      0.00%    100.00% # Type of FU issued
system.switch_cpus0.iq.FU_type_0::InstPrefetch            0      0.00%    100.00% # Type of FU issued
system.switch_cpus0.iq.FU_type_0::total     435337405                       # Type of FU issued
system.switch_cpus0.iq.fp_alu_accesses       93310360                       # Number of floating point alu accesses
system.switch_cpus0.iq.fp_inst_queue_reads    182104389                       # Number of floating instruction queue reads
system.switch_cpus0.iq.fp_inst_queue_wakeup_accesses     87491517                       # Number of floating instruction queue wakeup accesses
system.switch_cpus0.iq.fp_inst_queue_writes     98177751                       # Number of floating instruction queue writes
system.switch_cpus0.iq.fu_busy_cnt           12455616                       # FU busy when requested
system.switch_cpus0.iq.fu_busy_rate          0.028611                       # FU busy rate (busy events/executed inst)
system.switch_cpus0.iq.fu_full::No_OpClass            0      0.00%      0.00% # attempts to use FU when none available
system.switch_cpus0.iq.fu_full::IntAlu        3631808     29.16%     29.16% # attempts to use FU when none available
system.switch_cpus0.iq.fu_full::IntMult             0      0.00%     29.16% # attempts to use FU when none available
system.switch_cpus0.iq.fu_full::IntDiv              0      0.00%     29.16% # attempts to use FU when none available
system.switch_cpus0.iq.fu_full::FloatAdd         9369      0.08%     29.23% # attempts to use FU when none available
system.switch_cpus0.iq.fu_full::FloatCmp            0      0.00%     29.23% # attempts to use FU when none available
system.switch_cpus0.iq.fu_full::FloatCvt            0      0.00%     29.23% # attempts to use FU when none available
system.switch_cpus0.iq.fu_full::FloatMult            0      0.00%     29.23% # attempts to use FU when none available
system.switch_cpus0.iq.fu_full::FloatMultAcc            0      0.00%     29.23% # attempts to use FU when none available
system.switch_cpus0.iq.fu_full::FloatDiv            0      0.00%     29.23% # attempts to use FU when none available
system.switch_cpus0.iq.fu_full::FloatMisc            0      0.00%     29.23% # attempts to use FU when none available
system.switch_cpus0.iq.fu_full::FloatSqrt            0      0.00%     29.23% # attempts to use FU when none available
system.switch_cpus0.iq.fu_full::SimdAdd             0      0.00%     29.23% # attempts to use FU when none available
system.switch_cpus0.iq.fu_full::SimdAddAcc            0      0.00%     29.23% # attempts to use FU when none available
system.switch_cpus0.iq.fu_full::SimdAlu        192728      1.55%     30.78% # attempts to use FU when none available
system.switch_cpus0.iq.fu_full::SimdCmp             0      0.00%     30.78% # attempts to use FU when none available
system.switch_cpus0.iq.fu_full::SimdCvt             0      0.00%     30.78% # attempts to use FU when none available
system.switch_cpus0.iq.fu_full::SimdMisc            6      0.00%     30.78% # attempts to use FU when none available
system.switch_cpus0.iq.fu_full::SimdMult            0      0.00%     30.78% # attempts to use FU when none available
system.switch_cpus0.iq.fu_full::SimdMultAcc            0      0.00%     30.78% # attempts to use FU when none available
system.switch_cpus0.iq.fu_full::SimdShift            0      0.00%     30.78% # attempts to use FU when none available
system.switch_cpus0.iq.fu_full::SimdShiftAcc            0      0.00%     30.78% # attempts to use FU when none available
system.switch_cpus0.iq.fu_full::SimdDiv             0      0.00%     30.78% # attempts to use FU when none available
system.switch_cpus0.iq.fu_full::SimdSqrt            0      0.00%     30.78% # attempts to use FU when none available
system.switch_cpus0.iq.fu_full::SimdFloatAdd       450385      3.62%     34.40% # attempts to use FU when none available
system.switch_cpus0.iq.fu_full::SimdFloatAlu            0      0.00%     34.40% # attempts to use FU when none available
system.switch_cpus0.iq.fu_full::SimdFloatCmp            0      0.00%     34.40% # attempts to use FU when none available
system.switch_cpus0.iq.fu_full::SimdFloatCvt        45933      0.37%     34.77% # attempts to use FU when none available
system.switch_cpus0.iq.fu_full::SimdFloatDiv            0      0.00%     34.77% # attempts to use FU when none available
system.switch_cpus0.iq.fu_full::SimdFloatMisc            0      0.00%     34.77% # attempts to use FU when none available
system.switch_cpus0.iq.fu_full::SimdFloatMult       305870      2.46%     37.22% # attempts to use FU when none available
system.switch_cpus0.iq.fu_full::SimdFloatMultAcc            0      0.00%     37.22% # attempts to use FU when none available
system.switch_cpus0.iq.fu_full::SimdFloatSqrt            0      0.00%     37.22% # attempts to use FU when none available
system.switch_cpus0.iq.fu_full::SimdReduceAdd            0      0.00%     37.22% # attempts to use FU when none available
system.switch_cpus0.iq.fu_full::SimdReduceAlu            0      0.00%     37.22% # attempts to use FU when none available
system.switch_cpus0.iq.fu_full::SimdReduceCmp            0      0.00%     37.22% # attempts to use FU when none available
system.switch_cpus0.iq.fu_full::SimdFloatReduceAdd            0      0.00%     37.22% # attempts to use FU when none available
system.switch_cpus0.iq.fu_full::SimdFloatReduceCmp            0      0.00%     37.22% # attempts to use FU when none available
system.switch_cpus0.iq.fu_full::SimdAes             0      0.00%     37.22% # attempts to use FU when none available
system.switch_cpus0.iq.fu_full::SimdAesMix            0      0.00%     37.22% # attempts to use FU when none available
system.switch_cpus0.iq.fu_full::SimdSha1Hash            0      0.00%     37.22% # attempts to use FU when none available
system.switch_cpus0.iq.fu_full::SimdSha1Hash2            0      0.00%     37.22% # attempts to use FU when none available
system.switch_cpus0.iq.fu_full::SimdSha256Hash            0      0.00%     37.22% # attempts to use FU when none available
system.switch_cpus0.iq.fu_full::SimdSha256Hash2            0      0.00%     37.22% # attempts to use FU when none available
system.switch_cpus0.iq.fu_full::SimdShaSigma2            0      0.00%     37.22% # attempts to use FU when none available
system.switch_cpus0.iq.fu_full::SimdShaSigma3            0      0.00%     37.22% # attempts to use FU when none available
system.switch_cpus0.iq.fu_full::SimdPredAlu            0      0.00%     37.22% # attempts to use FU when none available
system.switch_cpus0.iq.fu_full::MemRead       3031568     24.34%     61.56% # attempts to use FU when none available
system.switch_cpus0.iq.fu_full::MemWrite      1030113      8.27%     69.83% # attempts to use FU when none available
system.switch_cpus0.iq.fu_full::FloatMemRead      3254134     26.13%     95.96% # attempts to use FU when none available
system.switch_cpus0.iq.fu_full::FloatMemWrite       503702      4.04%    100.00% # attempts to use FU when none available
system.switch_cpus0.iq.fu_full::IprAccess            0      0.00%    100.00% # attempts to use FU when none available
system.switch_cpus0.iq.fu_full::InstPrefetch            0      0.00%    100.00% # attempts to use FU when none available
system.switch_cpus0.iq.int_alu_accesses     352153640                       # Number of integer alu accesses
system.switch_cpus0.iq.int_inst_queue_reads    791791340                       # Number of integer instruction queue reads
system.switch_cpus0.iq.int_inst_queue_wakeup_accesses    343592134                       # Number of integer instruction queue wakeup accesses
system.switch_cpus0.iq.int_inst_queue_writes    402285116                       # Number of integer instruction queue writes
system.switch_cpus0.iq.iqInstsAdded         452949202                       # Number of instructions added to the IQ (excludes non-spec)
system.switch_cpus0.iq.iqInstsIssued        435337405                       # Number of instructions issued
system.switch_cpus0.iq.iqNonSpecInstsAdded           11                       # Number of non-speculative instructions added to the IQ
system.switch_cpus0.iq.iqSquashedInstsExamined     47497213                       # Number of squashed instructions iterated over during squash; mainly for profiling
system.switch_cpus0.iq.iqSquashedInstsIssued       738715                       # Number of squashed instructions issued
system.switch_cpus0.iq.iqSquashedNonSpecRemoved            7                       # Number of squashed non-spec instructions that were removed
system.switch_cpus0.iq.iqSquashedOperandsExamined     67634542                       # Number of squashed operands that are examined and possibly removed from graph
system.switch_cpus0.iq.issued_per_cycle::samples     90026594                       # Number of insts issued each cycle
system.switch_cpus0.iq.issued_per_cycle::mean     4.835653                       # Number of insts issued each cycle
system.switch_cpus0.iq.issued_per_cycle::stdev     2.692321                       # Number of insts issued each cycle
system.switch_cpus0.iq.issued_per_cycle::underflows            0      0.00%      0.00% # Number of insts issued each cycle
system.switch_cpus0.iq.issued_per_cycle::0     12638143     14.04%     14.04% # Number of insts issued each cycle
system.switch_cpus0.iq.issued_per_cycle::1      2391860      2.66%     16.70% # Number of insts issued each cycle
system.switch_cpus0.iq.issued_per_cycle::2      4640193      5.15%     21.85% # Number of insts issued each cycle
system.switch_cpus0.iq.issued_per_cycle::3      6225897      6.92%     28.76% # Number of insts issued each cycle
system.switch_cpus0.iq.issued_per_cycle::4      8621400      9.58%     38.34% # Number of insts issued each cycle
system.switch_cpus0.iq.issued_per_cycle::5     11101833     12.33%     50.67% # Number of insts issued each cycle
system.switch_cpus0.iq.issued_per_cycle::6     13574653     15.08%     65.75% # Number of insts issued each cycle
system.switch_cpus0.iq.issued_per_cycle::7     13116135     14.57%     80.32% # Number of insts issued each cycle
system.switch_cpus0.iq.issued_per_cycle::8     17716480     19.68%    100.00% # Number of insts issued each cycle
system.switch_cpus0.iq.issued_per_cycle::overflows            0      0.00%    100.00% # Number of insts issued each cycle
system.switch_cpus0.iq.issued_per_cycle::min_value            0                       # Number of insts issued each cycle
system.switch_cpus0.iq.issued_per_cycle::max_value            8                       # Number of insts issued each cycle
system.switch_cpus0.iq.issued_per_cycle::total     90026594                       # Number of insts issued each cycle
system.switch_cpus0.iq.rate                  4.830991                       # Inst issue rate
system.switch_cpus0.iq.vec_alu_accesses             0                       # Number of vector alu accesses
system.switch_cpus0.iq.vec_inst_queue_reads            0                       # Number of vector instruction queue reads
system.switch_cpus0.iq.vec_inst_queue_wakeup_accesses            0                       # Number of vector instruction queue wakeup accesses
system.switch_cpus0.iq.vec_inst_queue_writes            0                       # Number of vector instruction queue writes
system.switch_cpus0.memDep0.conflictingLoads      4918430                       # Number of conflicting loads.
system.switch_cpus0.memDep0.conflictingStores      2263458                       # Number of conflicting stores.
system.switch_cpus0.memDep0.insertedLoads     92636709                       # Number of loads inserted to the mem dependence unit.
system.switch_cpus0.memDep0.insertedStores     40967852                       # Number of stores inserted to the mem dependence unit.
system.switch_cpus0.misc_regfile_reads      213070783                       # number of misc regfile reads
system.switch_cpus0.misc_regfile_writes             9                       # number of misc regfile writes
system.switch_cpus0.numCycles                90113475                       # number of cpu cycles simulated
system.switch_cpus0.numWorkItemsCompleted            0                       # number of work items this cpu completed
system.switch_cpus0.numWorkItemsStarted             0                       # number of work items this cpu started
system.switch_cpus0.timesIdled                    400                       # Number of times that the entire CPU went into an idle state and unscheduled itself
system.switch_cpus1.cc_regfile_reads         45137695                       # number of cc regfile reads
system.switch_cpus1.cc_regfile_writes        54345636                       # number of cc regfile writes
system.switch_cpus1.committedInsts          250000006                       # Number of Instructions Simulated
system.switch_cpus1.committedOps            297151015                       # Number of Ops (including micro ops) Simulated
system.switch_cpus1.cpi                      0.360454                       # CPI: Cycles Per Instruction
system.switch_cpus1.cpi_total                0.360454                       # CPI: Total CPI of All Threads
system.switch_cpus1.fp_regfile_reads        404200074                       # number of floating regfile reads
system.switch_cpus1.fp_regfile_writes       198343001                       # number of floating regfile writes
system.switch_cpus1.idleCycles                  22547                       # Total number of cycles that the CPU has spent unscheduled due to idling
system.switch_cpus1.iew.branchMispredicts       153376                       # Number of branch mispredicts detected at execute
system.switch_cpus1.iew.exec_branches         2765418                       # Number of branches executed
system.switch_cpus1.iew.exec_nop                    0                       # number of nop insts executed
system.switch_cpus1.iew.exec_rate            3.329725                       # Inst execution rate
system.switch_cpus1.iew.exec_refs            98352571                       # number of memory reference insts executed
system.switch_cpus1.iew.exec_stores          23618027                       # Number of stores executed
system.switch_cpus1.iew.exec_swp                    0                       # number of swp insts executed
system.switch_cpus1.iew.iewBlockCycles       14638724                       # Number of cycles IEW is blocking
system.switch_cpus1.iew.iewDispLoadInsts     75346787                       # Number of dispatched load instructions
system.switch_cpus1.iew.iewDispNonSpecInsts            0                       # Number of dispatched non-speculative instructions
system.switch_cpus1.iew.iewDispSquashedInsts        66200                       # Number of squashed instructions skipped by dispatch
system.switch_cpus1.iew.iewDispStoreInsts     23699037                       # Number of dispatched store instructions
system.switch_cpus1.iew.iewDispatchedInsts    303148641                       # Number of instructions dispatched to IQ
system.switch_cpus1.iew.iewExecLoadInsts     74734544                       # Number of load instructions executed
system.switch_cpus1.iew.iewExecSquashedInsts       245507                       # Number of squashed instructions skipped in execute
system.switch_cpus1.iew.iewExecutedInsts    300053094                       # Number of executed instructions
system.switch_cpus1.iew.iewIQFullEvents        204288                       # Number of times the IQ has become full, causing a stall
system.switch_cpus1.iew.iewIdleCycles               0                       # Number of cycles IEW is idle
system.switch_cpus1.iew.iewLSQFullEvents       439501                       # Number of times the LSQ has become full, causing a stall
system.switch_cpus1.iew.iewSquashCycles        153408                       # Number of cycles IEW is squashing
system.switch_cpus1.iew.iewUnblockCycles       706541                       # Number of cycles IEW is unblocking
system.switch_cpus1.iew.memOrderViolationEvents         4082                       # Number of memory order violations
system.switch_cpus1.iew.predictedNotTakenIncorrect        34499                       # Number of branches that were predicted not taken incorrectly
system.switch_cpus1.iew.predictedTakenIncorrect       118877                       # Number of branches that were predicted taken incorrectly
system.switch_cpus1.iew.wb_consumers        455468557                       # num instructions consuming a value
system.switch_cpus1.iew.wb_count            299932983                       # cumulative count of insts written-back
system.switch_cpus1.iew.wb_fanout            0.525703                       # average fanout of values written-back
system.switch_cpus1.iew.wb_producers        239441319                       # num instructions producing a value
system.switch_cpus1.iew.wb_rate              3.328392                       # insts written-back per cycle
system.switch_cpus1.iew.wb_sent             300004307                       # cumulative count of insts sent to commit
system.switch_cpus1.int_regfile_reads       312021762                       # number of integer regfile reads
system.switch_cpus1.int_regfile_writes       73201498                       # number of integer regfile writes
system.switch_cpus1.ipc                      2.774280                       # IPC: Instructions Per Cycle
system.switch_cpus1.ipc_total                2.774280                       # IPC: Total IPC of All Threads
system.switch_cpus1.iq.FU_type_0::No_OpClass        53225      0.02%      0.02% # Type of FU issued
system.switch_cpus1.iq.FU_type_0::IntAlu     86556187     28.82%     28.84% # Type of FU issued
system.switch_cpus1.iq.FU_type_0::IntMult        30135      0.01%     28.85% # Type of FU issued
system.switch_cpus1.iq.FU_type_0::IntDiv            0      0.00%     28.85% # Type of FU issued
system.switch_cpus1.iq.FU_type_0::FloatAdd            0      0.00%     28.85% # Type of FU issued
system.switch_cpus1.iq.FU_type_0::FloatCmp            0      0.00%     28.85% # Type of FU issued
system.switch_cpus1.iq.FU_type_0::FloatCvt            0      0.00%     28.85% # Type of FU issued
system.switch_cpus1.iq.FU_type_0::FloatMult            0      0.00%     28.85% # Type of FU issued
system.switch_cpus1.iq.FU_type_0::FloatMultAcc            0      0.00%     28.85% # Type of FU issued
system.switch_cpus1.iq.FU_type_0::FloatDiv            0      0.00%     28.85% # Type of FU issued
system.switch_cpus1.iq.FU_type_0::FloatMisc            0      0.00%     28.85% # Type of FU issued
system.switch_cpus1.iq.FU_type_0::FloatSqrt            0      0.00%     28.85% # Type of FU issued
system.switch_cpus1.iq.FU_type_0::SimdAdd            0      0.00%     28.85% # Type of FU issued
system.switch_cpus1.iq.FU_type_0::SimdAddAcc            0      0.00%     28.85% # Type of FU issued
system.switch_cpus1.iq.FU_type_0::SimdAlu       187330      0.06%     28.91% # Type of FU issued
system.switch_cpus1.iq.FU_type_0::SimdCmp            0      0.00%     28.91% # Type of FU issued
system.switch_cpus1.iq.FU_type_0::SimdCvt            0      0.00%     28.91% # Type of FU issued
system.switch_cpus1.iq.FU_type_0::SimdMisc          744      0.00%     28.91% # Type of FU issued
system.switch_cpus1.iq.FU_type_0::SimdMult            0      0.00%     28.91% # Type of FU issued
system.switch_cpus1.iq.FU_type_0::SimdMultAcc            0      0.00%     28.91% # Type of FU issued
system.switch_cpus1.iq.FU_type_0::SimdShift            0      0.00%     28.91% # Type of FU issued
system.switch_cpus1.iq.FU_type_0::SimdShiftAcc            0      0.00%     28.91% # Type of FU issued
system.switch_cpus1.iq.FU_type_0::SimdDiv            0      0.00%     28.91% # Type of FU issued
system.switch_cpus1.iq.FU_type_0::SimdSqrt            0      0.00%     28.91% # Type of FU issued
system.switch_cpus1.iq.FU_type_0::SimdFloatAdd     55718356     18.55%     47.47% # Type of FU issued
system.switch_cpus1.iq.FU_type_0::SimdFloatAlu            0      0.00%     47.47% # Type of FU issued
system.switch_cpus1.iq.FU_type_0::SimdFloatCmp            0      0.00%     47.47% # Type of FU issued
system.switch_cpus1.iq.FU_type_0::SimdFloatCvt      3366045      1.12%     48.59% # Type of FU issued
system.switch_cpus1.iq.FU_type_0::SimdFloatDiv            0      0.00%     48.59% # Type of FU issued
system.switch_cpus1.iq.FU_type_0::SimdFloatMisc            0      0.00%     48.59% # Type of FU issued
system.switch_cpus1.iq.FU_type_0::SimdFloatMult     55938983     18.63%     67.22% # Type of FU issued
system.switch_cpus1.iq.FU_type_0::SimdFloatMultAcc            0      0.00%     67.22% # Type of FU issued
system.switch_cpus1.iq.FU_type_0::SimdFloatSqrt            0      0.00%     67.22% # Type of FU issued
system.switch_cpus1.iq.FU_type_0::SimdReduceAdd            0      0.00%     67.22% # Type of FU issued
system.switch_cpus1.iq.FU_type_0::SimdReduceAlu            0      0.00%     67.22% # Type of FU issued
system.switch_cpus1.iq.FU_type_0::SimdReduceCmp            0      0.00%     67.22% # Type of FU issued
system.switch_cpus1.iq.FU_type_0::SimdFloatReduceAdd            0      0.00%     67.22% # Type of FU issued
system.switch_cpus1.iq.FU_type_0::SimdFloatReduceCmp            0      0.00%     67.22% # Type of FU issued
system.switch_cpus1.iq.FU_type_0::SimdAes            0      0.00%     67.22% # Type of FU issued
system.switch_cpus1.iq.FU_type_0::SimdAesMix            0      0.00%     67.22% # Type of FU issued
system.switch_cpus1.iq.FU_type_0::SimdSha1Hash            0      0.00%     67.22% # Type of FU issued
system.switch_cpus1.iq.FU_type_0::SimdSha1Hash2            0      0.00%     67.22% # Type of FU issued
[...]
system.switch_cpus3.commit.numCommittedDist::stdev     2.433726                       # Number of insts commited each cycle
system.switch_cpus3.commit.numCommittedDist::underflows            0      0.00%      0.00% # Number of insts commited each cycle
system.switch_cpus3.commit.numCommittedDist::0     74557928     82.81%     82.81% # Number of insts commited each cycle
system.switch_cpus3.commit.numCommittedDist::1      2137441      2.37%     85.19% # Number of insts commited each cycle
system.switch_cpus3.commit.numCommittedDist::2      1678661      1.86%     87.05% # Number of insts commited each cycle
system.switch_cpus3.commit.numCommittedDist::3      1248878      1.39%     88.44% # Number of insts commited each cycle
system.switch_cpus3.commit.numCommittedDist::4       646893      0.72%     89.16% # Number of insts commited each cycle
system.switch_cpus3.commit.numCommittedDist::5       718438      0.80%     89.95% # Number of insts commited each cycle
system.switch_cpus3.commit.numCommittedDist::6       255389      0.28%     90.24% # Number of insts commited each cycle
system.switch_cpus3.commit.numCommittedDist::7       175507      0.19%     90.43% # Number of insts commited each cycle
system.switch_cpus3.commit.numCommittedDist::8      8614604      9.57%    100.00% # Number of insts commited each cycle
system.switch_cpus3.commit.numCommittedDist::overflows            0      0.00%    100.00% # Number of insts commited each cycle
system.switch_cpus3.commit.numCommittedDist::min_value            0                       # Number of insts commited each cycle
system.switch_cpus3.commit.numCommittedDist::max_value            8                       # Number of insts commited each cycle
system.switch_cpus3.commit.numCommittedDist::total     90033739                       # Number of insts commited each cycle
system.switch_cpus3.commit.instsCommitted     61698837                       # Number of instructions committed
system.switch_cpus3.commit.opsCommitted      87098874                       # Number of ops (including micro ops) committed
system.switch_cpus3.commit.memRefs           23111974                       # Number of memory references committed
system.switch_cpus3.commit.loads             18471566                       # Number of loads committed
system.switch_cpus3.commit.amos                     0                       # Number of atomic instructions committed
system.switch_cpus3.commit.membars                  0                       # Number of memory barriers committed
system.switch_cpus3.commit.branches           3420370                       # Number of branches committed
system.switch_cpus3.commit.vector                   0                       # Number of committed Vector instructions.
system.switch_cpus3.commit.floating          56651344                       # Number of committed floating point instructions.
system.switch_cpus3.commit.integer           52172454                       # Number of committed integer instructions.
system.switch_cpus3.commit.functionCalls          131                       # Number of function calls committed.
system.switch_cpus3.commit.committedInstType_0::No_OpClass         2100      0.00%      0.00% # Class of committed instruction
system.switch_cpus3.commit.committedInstType_0::IntAlu     32937923     37.82%     37.82% # Class of committed instruction
system.switch_cpus3.commit.committedInstType_0::IntMult         3482      0.00%     37.82% # Class of committed instruction
system.switch_cpus3.commit.committedInstType_0::IntDiv            7      0.00%     37.82% # Class of committed instruction
system.switch_cpus3.commit.committedInstType_0::FloatAdd           81      0.00%     37.82% # Class of committed instruction
system.switch_cpus3.commit.committedInstType_0::FloatCmp            0      0.00%     37.82% # Class of committed instruction
system.switch_cpus3.commit.committedInstType_0::FloatCvt            0      0.00%     37.82% # Class of committed instruction
system.switch_cpus3.commit.committedInstType_0::FloatMult            0      0.00%     37.82% # Class of committed instruction
system.switch_cpus3.commit.committedInstType_0::FloatMultAcc            0      0.00%     37.82% # Class of committed instruction
system.switch_cpus3.commit.committedInstType_0::FloatDiv            0      0.00%     37.82% # Class of committed instruction
system.switch_cpus3.commit.committedInstType_0::FloatMisc            0      0.00%     37.82% # Class of committed instruction
system.switch_cpus3.commit.committedInstType_0::FloatSqrt            0      0.00%     37.82% # Class of committed instruction
system.switch_cpus3.commit.committedInstType_0::SimdAdd            0      0.00%     37.82% # Class of committed instruction
system.switch_cpus3.commit.committedInstType_0::SimdAddAcc            0      0.00%     37.82% # Class of committed instruction
system.switch_cpus3.commit.committedInstType_0::SimdAlu       398298      0.46%     38.28% # Class of committed instruction
system.switch_cpus3.commit.committedInstType_0::SimdCmp            0      0.00%     38.28% # Class of committed instruction
system.switch_cpus3.commit.committedInstType_0::SimdCvt            0      0.00%     38.28% # Class of committed instruction
system.switch_cpus3.commit.committedInstType_0::SimdMisc          455      0.00%     38.28% # Class of committed instruction
system.switch_cpus3.commit.committedInstType_0::SimdMult            0      0.00%     38.28% # Class of committed instruction
system.switch_cpus3.commit.committedInstType_0::SimdMultAcc            0      0.00%     38.28% # Class of committed instruction
system.switch_cpus3.commit.committedInstType_0::SimdShift            0      0.00%     38.28% # Class of committed instruction
system.switch_cpus3.commit.committedInstType_0::SimdShiftAcc            0      0.00%     38.28% # Class of committed instruction
system.switch_cpus3.commit.committedInstType_0::SimdDiv            0      0.00%     38.28% # Class of committed instruction
system.switch_cpus3.commit.committedInstType_0::SimdSqrt            0      0.00%     38.28% # Class of committed instruction
system.switch_cpus3.commit.committedInstType_0::SimdFloatAdd     12426990     14.27%     52.55% # Class of committed instruction
system.switch_cpus3.commit.committedInstType_0::SimdFloatAlu            0      0.00%     52.55% # Class of committed instruction
system.switch_cpus3.commit.committedInstType_0::SimdFloatCmp            0      0.00%     52.55% # Class of committed instruction
system.switch_cpus3.commit.committedInstType_0::SimdFloatCvt      1774377      2.04%     54.59% # Class of committed instruction
system.switch_cpus3.commit.committedInstType_0::SimdFloatDiv       391648      0.45%     55.04% # Class of committed instruction
system.switch_cpus3.commit.committedInstType_0::SimdFloatMisc            0      0.00%     55.04% # Class of committed instruction
system.switch_cpus3.commit.committedInstType_0::SimdFloatMult     15557493     17.86%     72.90% # Class of committed instruction
system.switch_cpus3.commit.committedInstType_0::SimdFloatMultAcc            0      0.00%     72.90% # Class of committed instruction
system.switch_cpus3.commit.committedInstType_0::SimdFloatSqrt       494046      0.57%     73.46% # Class of committed instruction
system.switch_cpus3.commit.committedInstType_0::SimdReduceAdd            0      0.00%     73.46% # Class of committed instruction
system.switch_cpus3.commit.committedInstType_0::SimdReduceAlu            0      0.00%     73.46% # Class of committed instruction
system.switch_cpus3.commit.committedInstType_0::SimdReduceCmp            0      0.00%     73.46% # Class of committed instruction
system.switch_cpus3.commit.committedInstType_0::SimdFloatReduceAdd            0      0.00%     73.46% # Class of committed instruction
system.switch_cpus3.commit.committedInstType_0::SimdFloatReduceCmp            0      0.00%     73.46% # Class of committed instruction
system.switch_cpus3.commit.committedInstType_0::SimdAes            0      0.00%     73.46% # Class of committed instruction
system.switch_cpus3.commit.committedInstType_0::SimdAesMix            0      0.00%     73.46% # Class of committed instruction
system.switch_cpus3.commit.committedInstType_0::SimdSha1Hash            0      0.00%     73.46% # Class of committed instruction
system.switch_cpus3.commit.committedInstType_0::SimdSha1Hash2            0      0.00%     73.46% # Class of committed instruction
system.switch_cpus3.commit.committedInstType_0::SimdSha256Hash            0      0.00%     73.46% # Class of committed instruction
system.switch_cpus3.commit.committedInstType_0::SimdSha256Hash2            0      0.00%     73.46% # Class of committed instruction
system.switch_cpus3.commit.committedInstType_0::SimdShaSigma2            0      0.00%     73.46% # Class of committed instruction
system.switch_cpus3.commit.committedInstType_0::SimdShaSigma3            0      0.00%     73.46% # Class of committed instruction
system.switch_cpus3.commit.committedInstType_0::SimdPredAlu            0      0.00%     73.46% # Class of committed instruction
system.switch_cpus3.commit.committedInstType_0::MemRead      1351929      1.55%     75.02% # Class of committed instruction
system.switch_cpus3.commit.committedInstType_0::MemWrite        32234      0.04%     75.05% # Class of committed instruction
system.switch_cpus3.commit.committedInstType_0::FloatMemRead     17119637     19.66%     94.71% # Class of committed instruction
system.switch_cpus3.commit.committedInstType_0::FloatMemWrite      4608174      5.29%    100.00% # Class of committed instruction
system.switch_cpus3.commit.committedInstType_0::IprAccess            0      0.00%    100.00% # Class of committed instruction
system.switch_cpus3.commit.committedInstType_0::InstPrefetch            0      0.00%    100.00% # Class of committed instruction
system.switch_cpus3.commit.committedInstType_0::total     87098874                       # Class of committed instruction
system.switch_cpus3.commit.commitEligibleSamples      8614604                       # number cycles where commit BW limit reached
system.switch_cpus3.decode.idleCycles         1106186                       # Number of cycles decode is idle
system.switch_cpus3.decode.blockedCycles     77247420                       # Number of cycles decode is blocked
system.switch_cpus3.decode.runCycles          9295621                       # Number of cycles decode is running
system.switch_cpus3.decode.unblockCycles      2400673                       # Number of cycles decode is unblocking
system.switch_cpus3.decode.squashCycles          7518                       # Number of cycles decode is squashing
system.switch_cpus3.decode.branchResolved      1651390                       # Number of times decode resolved a  branch
system.switch_cpus3.decode.branchMispred          105                       # Number of times decode detected a branch misprediction
system.switch_cpus3.decode.decodedInsts      87376896                       # Number of instructions handled by decode
system.switch_cpus3.decode.squashedInsts          501                       # Number of squashed instructions handled by decode
system.switch_cpus3.dtb.rdAccesses           18502827                       # TLB accesses on read requests
system.switch_cpus3.dtb.wrAccesses            4641376                       # TLB accesses on write requests
system.switch_cpus3.dtb.rdMisses                38891                       # TLB misses on read requests
system.switch_cpus3.dtb.wrMisses                 9343                       # TLB misses on write requests
system.switch_cpus3.dtb.walker.power_state.pwrStateResidencyTicks::UNDEFINED 13975166281230                       # Cumulative time (in ticks) in various power states
system.switch_cpus3.fetch.icacheStallCycles        43145                       # Number of cycles fetch is stalled on an Icache miss
system.switch_cpus3.fetch.insts              62045659                       # Number of instructions fetch has processed
system.switch_cpus3.fetch.branches            3444680                       # Number of branches that fetch encountered
system.switch_cpus3.fetch.predictedBranches      1659932                       # Number of branches that fetch has predicted taken
system.switch_cpus3.fetch.cycles             90006683                       # Number of cycles fetch has run and was not squashing or blocked
system.switch_cpus3.fetch.squashCycles          15242                       # Number of cycles fetch has spent squashing
system.switch_cpus3.fetch.cacheLines          5414566                       # Number of cache lines fetched
system.switch_cpus3.fetch.icacheSquashes          195                       # Number of outstanding Icache misses that were squashed
system.switch_cpus3.fetch.nisnDist::samples     90057449                       # Number of instructions fetched each cycle (Total)
system.switch_cpus3.fetch.nisnDist::mean     0.972362                       # Number of instructions fetched each cycle (Total)
system.switch_cpus3.fetch.nisnDist::stdev     2.456837                       # Number of instructions fetched each cycle (Total)
system.switch_cpus3.fetch.nisnDist::underflows            0      0.00%      0.00% # Number of instructions fetched each cycle (Total)
system.switch_cpus3.fetch.nisnDist::0        75858742     84.23%     84.23% # Number of instructions fetched each cycle (Total)
system.switch_cpus3.fetch.nisnDist::1         1314274      1.46%     85.69% # Number of instructions fetched each cycle (Total)
system.switch_cpus3.fetch.nisnDist::2          614378      0.68%     86.38% # Number of instructions fetched each cycle (Total)
system.switch_cpus3.fetch.nisnDist::3         1066957      1.18%     87.56% # Number of instructions fetched each cycle (Total)
system.switch_cpus3.fetch.nisnDist::4          920296      1.02%     88.58% # Number of instructions fetched each cycle (Total)
system.switch_cpus3.fetch.nisnDist::5          546662      0.61%     89.19% # Number of instructions fetched each cycle (Total)
system.switch_cpus3.fetch.nisnDist::6          523609      0.58%     89.77% # Number of instructions fetched each cycle (Total)
system.switch_cpus3.fetch.nisnDist::7         1431889      1.59%     91.36% # Number of instructions fetched each cycle (Total)
system.switch_cpus3.fetch.nisnDist::8         7780642      8.64%    100.00% # Number of instructions fetched each cycle (Total)
system.switch_cpus3.fetch.nisnDist::overflows            0      0.00%    100.00% # Number of instructions fetched each cycle (Total)
system.switch_cpus3.fetch.nisnDist::min_value            0                       # Number of instructions fetched each cycle (Total)
system.switch_cpus3.fetch.nisnDist::max_value            8                       # Number of instructions fetched each cycle (Total)
system.switch_cpus3.fetch.nisnDist::total     90057449                       # Number of instructions fetched each cycle (Total)
system.switch_cpus3.fetch.branchRate         0.038226                       # Number of branch fetches per cycle
system.switch_cpus3.fetch.rate               0.688528                       # Number of inst fetches per cycle
system.switch_cpus3.itb.rdAccesses                  0                       # TLB accesses on read requests
system.switch_cpus3.itb.wrAccesses            5414566                       # TLB accesses on write requests
system.switch_cpus3.itb.rdMisses                    0                       # TLB misses on read requests
system.switch_cpus3.itb.wrMisses                   22                       # TLB misses on write requests
system.switch_cpus3.itb.walker.power_state.pwrStateResidencyTicks::UNDEFINED 13975166281230                       # Cumulative time (in ticks) in various power states
system.switch_cpus3.lsq0.forwLoads            1432283                       # Number of loads that had data forwarded from stores
system.switch_cpus3.lsq0.squashedLoads          44309                       # Number of loads squashed
system.switch_cpus3.lsq0.ignoredResponses           20                       # Number of memory responses ignored because the instruction is squashed
system.switch_cpus3.lsq0.memOrderViolation          563                       # Number of memory ordering violations
system.switch_cpus3.lsq0.squashedStores          7205                       # Number of stores squashed
system.switch_cpus3.lsq0.rescheduledLoads            8                       # Number of loads that were rescheduled
system.switch_cpus3.lsq0.blockedByCache            27                       # Number of times an access to memory failed due to the cache being blocked
system.switch_cpus3.power_state.pwrStateResidencyTicks::OFF  30007797498                       # Cumulative time (in ticks) in various power states
system.switch_cpus3.rename.squashCycles          7518                       # Number of cycles rename is squashing
system.switch_cpus3.rename.idleCycles         2167102                       # Number of cycles rename is idle
system.switch_cpus3.rename.blockCycles       36182263                       # Number of cycles rename is blocking
system.switch_cpus3.rename.serializeStallCycles            0                       # count of cycles rename stalledfor serializing inst
system.switch_cpus3.rename.runCycles         10569067                       # Number of cycles rename is running
system.switch_cpus3.rename.unblockCycles     41131468                       # Number of cycles rename is unblocking
system.switch_cpus3.rename.renamedInsts      87324511                       # Number of instructions processed by rename
system.switch_cpus3.rename.ROBFullEvents       210112                       # Number of times rename has blocked due to ROB full
system.switch_cpus3.rename.IQFullEvents       4180085                       # Number of times rename has blocked due to IQ full
system.switch_cpus3.rename.LQFullEvents       2093287                       # Number of times rename has blocked due to LQ full
system.switch_cpus3.rename.SQFullEvents      34933549                       # Number of times rename has blocked due to SQ full
system.switch_cpus3.rename.renamedOperands    102527582                       # Number of destination operands rename has renamed
system.switch_cpus3.rename.lookups          235531446                       # Number of register rename lookups that rename has made
system.switch_cpus3.rename.intLookups        74354450                       # Number of integer rename lookups
system.switch_cpus3.rename.fpLookups        103044367                       # Number of floating rename lookups
system.switch_cpus3.rename.committedMaps    102227823                       # Number of HB maps that are committed
system.switch_cpus3.rename.undoneMaps          299661                       # Number of HB maps that are undone due to squashing
system.switch_cpus3.rename.serializing              0                       # count of serializing insts renamed
system.switch_cpus3.rename.tempSerializing            0                       # count of temporary serializing insts renamed
system.switch_cpus3.rename.skidInsts         13758373                       # count of insts added to the skid buffer
system.switch_cpus3.rob.reads               168681001                       # The number of ROB reads
system.switch_cpus3.rob.writes              174547565                       # The number of ROB writes
system.switch_cpus3.thread0.numInsts         61698837                       # Number of Instructions committed
system.switch_cpus3.thread0.numOps           87098874                       # Number of Ops committed
system.switch_cpus3.thread0.numMemRefs              0                       # Number of Memory References
system.voltage_domain.voltage                       1                       # Voltage in Volts

---------- End Simulation Statistics   ----------
