Command line:
./runscript_pride.sh mix12 RFM2.BR2.4C 4 2017 --rh_defense --rh_mitigation=RFM --rh_rfm_per_trefi=2 --rh_rfm_blast_radius=2 --rh_rfm_maxacts_per_trefi=79
Global frequency set at 1000000000000 ticks per second
RFM details - rfm_act_threshold: 39, blast_radius: 2, delay_per_rfm: 175000 ps. sample_rate: 0.025000
RH Defense config: RFM, Bus Delay: 0, rfms_per_trefi: 2, rfm_act_threshold: 39, blast_radius: 2,rfm_delay_per_act: 45000 ps.
DRAM config: RowsPerBank: 65536, BanksPerRank: 32, RanksPerChannel: 1
warn: Sockets disabled, not accepting gdb connections
warn: CoherentXBar system.cpu0.mmucache.mmubus has no snooping ports attached!
warn: CoherentXBar system.cpu1.mmucache.mmubus has no snooping ports attached!
warn: CoherentXBar system.cpu2.mmucache.mmubus has no snooping ports attached!
warn: CoherentXBar system.cpu3.mmucache.mmubus has no snooping ports attached!
warn: Checkpoints for file descriptors currently do not work.
warn: Checkpoints for file descriptors currently do not work.
warn: Checkpoints for file descriptors currently do not work.
warn: Checkpoints for file descriptors currently do not work.
gem5 Simulator System.  http://gem5.org
gem5 is copyrighted software; use the --copyright option for details.

gem5 version 20.1.0.5
gem5 compiled Jul 12 2024 12:42:38
gem5 started Jul 22 2024 15:34:35
gem5 executing on a07dda8b130c, pid 88609
command line: /home/user/PrIDE/performance/gem5/build/X86/gem5.opt --outdir=/home/user/PrIDE/performance/gem5/stats/pride_multiprogram_16GBmem_250Mn.SPEC2017.C4/RFM2.BR2.4C/mix12 /home/user/PrIDE/performance/gem5/configs/example/se_rq_spec_config_multicore.py --redirects /lib64=/home/utils/gcc-6.2.0/lib64 --benchmark=mix12 --benchmark_stdout=/home/user/PrIDE/performance/gem5/stats/pride_multiprogram_16GBmem_250Mn.SPEC2017.C4/RFM2.BR2.4C/mix12/mix12.out --benchmark_stderr=/home/user/PrIDE/performance/gem5/stats/pride_multiprogram_16GBmem_250Mn.SPEC2017.C4/RFM2.BR2.4C/mix12/mix12.err --spec-version=2017 --rh_defense --rh_mitigation=RFM --rh_rfm_per_trefi=2 --rh_rfm_blast_radius=2 --rh_rfm_maxacts_per_trefi=79 --num-cpus=4 --mem-size=16GB --mem-type=DDR5_2400_32x4 --mem-ranks=1 --checkpoint-dir=/home/user/PrIDE/performance/gem5/cpts/multiprogram_16GBmem_25Bn.SPEC2017.C4/mix12-1-ref-x86 --checkpoint-restore=25000000000 --at-instruction --cpu-type DerivO3CPU --caches --l2cache --l1d_size=32kB --l1i_size=32kB --l2_size=256kB --l1d_assoc=8 --l1i_assoc=8 --l2_assoc=16 --maxinsts=250000000 --prog-interval=300Hz

info: Standard input is not a terminal, disabling listeners.
Benchmark- 0   roms
Selected benchmark
--> roms
CMD: ['/opt/spec2017/benchspec/CPU/554.roms_r/run/run_base_refrate_gem5_se-m64.0000/roms_r_base.gem5_se-m64']
CWD: /opt/spec2017/benchspec/CPU/554.roms_r/run/run_base_refrate_gem5_se-m64.0000/
Process stdout file: /home/user/PrIDE/performance/gem5/stats/pride_multiprogram_16GBmem_250Mn.SPEC2017.C4/RFM2.BR2.4C/mix12/mix12.out_0
Process stderr file: /home/user/PrIDE/performance/gem5/stats/pride_multiprogram_16GBmem_250Mn.SPEC2017.C4/RFM2.BR2.4C/mix12/mix12.err_0
Benchmark- 1   mcf
Selected benchmark
--> mcf
CMD: ['/opt/spec2017/benchspec/CPU/505.mcf_r/run/run_base_refrate_gem5_se-m64.0000/mcf_r_base.gem5_se-m64', '/opt/spec2017/benchspec/CPU/505.mcf_r/run/run_base_refrate_gem5_se-m64.0000/inp.in']
CWD: /opt/spec2017/benchspec/CPU/505.mcf_r/run/run_base_refrate_gem5_se-m64.0000/
Process stdout file: /home/user/PrIDE/performance/gem5/stats/pride_multiprogram_16GBmem_250Mn.SPEC2017.C4/RFM2.BR2.4C/mix12/mix12.out_1
Process stderr file: /home/user/PrIDE/performance/gem5/stats/pride_multiprogram_16GBmem_250Mn.SPEC2017.C4/RFM2.BR2.4C/mix12/mix12.err_1
Benchmark- 2   imagick
Selected benchmark
--> imagick
CMD: ['/opt/spec2017/benchspec/CPU/538.imagick_r/run/run_base_refrate_gem5_se-m64.0000/imagick_r_base.gem5_se-m64', '-limit', 'disk', '0', '/opt/spec2017/benchspec/CPU/538.imagick_r/run/run_base_refrate_gem5_se-m64.0000/refrate_input.tga', '-edge', '41', '-resample', '181%', '-emboss', '31', '-colorspace', 'YUV', '-mean-shift', '19x19+15%', '-resize', '30%', '/opt/spec2017/benchspec/CPU/538.imagick_r/run/run_base_refrate_gem5_se-m64.0000/refrate_output.tga']
CWD: /opt/spec2017/benchspec/CPU/538.imagick_r/run/run_base_refrate_gem5_se-m64.0000/
Process stdout file: /home/user/PrIDE/performance/gem5/stats/pride_multiprogram_16GBmem_250Mn.SPEC2017.C4/RFM2.BR2.4C/mix12/mix12.out_2
Process stderr file: /home/user/PrIDE/performance/gem5/stats/pride_multiprogram_16GBmem_250Mn.SPEC2017.C4/RFM2.BR2.4C/mix12/mix12.err_2
Benchmark- 3   blender
Selected benchmark
--> blender
CMD: ['/opt/spec2017/benchspec/CPU/526.blender_r/run/run_base_refrate_gem5_se-m64.0000/blender_r_base.gem5_se-m64', '/opt/spec2017/benchspec/CPU/526.blender_r/run/run_base_refrate_gem5_se-m64.0000/sh3_no_char.blend', '--render-output', 'sh3_no_char_', '--threads', '1', '-b', '-F', 'RAWTGA', '-s', '849', '-e', '849', '-a']
CWD: /opt/spec2017/benchspec/CPU/526.blender_r/run/run_base_refrate_gem5_se-m64.0000/
Process stdout file: /home/user/PrIDE/performance/gem5/stats/pride_multiprogram_16GBmem_250Mn.SPEC2017.C4/RFM2.BR2.4C/mix12/mix12.out_3
Process stderr file: /home/user/PrIDE/performance/gem5/stats/pride_multiprogram_16GBmem_250Mn.SPEC2017.C4/RFM2.BR2.4C/mix12/mix12.err_3
Workload-0: 
['/opt/spec2017/benchspec/CPU/554.roms_r/run/run_base_refrate_gem5_se-m64.0000/roms_r_base.gem5_se-m64']
Workload-1: 
['/opt/spec2017/benchspec/CPU/505.mcf_r/run/run_base_refrate_gem5_se-m64.0000/mcf_r_base.gem5_se-m64', '/opt/spec2017/benchspec/CPU/505.mcf_r/run/run_base_refrate_gem5_se-m64.0000/inp.in']
Workload-2: 
['/opt/spec2017/benchspec/CPU/538.imagick_r/run/run_base_refrate_gem5_se-m64.0000/imagick_r_base.gem5_se-m64', '-limit', 'disk', '0', '/opt/spec2017/benchspec/CPU/538.imagick_r/run/run_base_refrate_gem5_se-m64.0000/refrate_input.tga', '-edge', '41', '-resample', '181%', '-emboss', '31', '-colorspace', 'YUV', '-mean-shift', '19x19+15%', '-resize', '30%', '/opt/spec2017/benchspec/CPU/538.imagick_r/run/run_base_refrate_gem5_se-m64.0000/refrate_output.tga']
Workload-3: 
['/opt/spec2017/benchspec/CPU/526.blender_r/run/run_base_refrate_gem5_se-m64.0000/blender_r_base.gem5_se-m64', '/opt/spec2017/benchspec/CPU/526.blender_r/run/run_base_refrate_gem5_se-m64.0000/sh3_no_char.blend', '--render-output', 'sh3_no_char_', '--threads', '1', '-b', '-F', 'RAWTGA', '-s', '849', '-e', '849', '-a']
defense_enable:  True  detector:  MG  mitigation:  RFM  threshold:  800
mg_entries:  1700
rfm_maxacts_per_trefi:  79 rfm_per_trefi:  2 rfm_blast_radius:  2
Switch at curTick count:10000
warn: membus.master is deprecated. `master` is now called `mem_side_ports`
warn: No dot file generated. Please install pydot to generate the dot file and pdf.
info: Entering event queue @ 15651257077665.  Starting simulation...
info: Entering event queue @ 15651257087665.  Starting simulation...
warn: PowerState: Already in the requested power state, request ignored
Switched CPUS @ tick 15651257087665
switching cpus
**** REAL SIMULATION ****
info: Entering event queue @ 15651257088321.  Starting simulation...
15654590410998: Event_285: system.switch_cpus3 progress event, total committed:37367649, progress insts committed: 37367649, IPC: 03.73303
15654590410998: Event_284: system.switch_cpus2 progress event, total committed:51610375, progress insts committed: 51610375, IPC: 05.15588
15654590410998: Event_283: system.switch_cpus1 progress event, total committed:10893827, progress insts committed: 10893827, IPC: 01.08829
15654590410998: Event_282: system.switch_cpus0 progress event, total committed:8918629, progress insts committed: 8918629, IPC: 0.890971
warn: MOVNTDQ: Ignoring non-temporal hint, modeling as cacheable!
15657923744331: Event_282: system.switch_cpus0 progress event, total committed:18073123, progress insts committed: 9154494, IPC: 0.914534
15657923744331: Event_283: system.switch_cpus1 progress event, total committed:22505492, progress insts committed: 11611665, IPC: 01.16001
15657923744331: Event_284: system.switch_cpus2 progress event, total committed:97919087, progress insts committed: 46308712, IPC: 04.62624
15657923744331: Event_285: system.switch_cpus3 progress event, total committed:75381435, progress insts committed: 38013786, IPC: 03.79758
15661257077664: Event_285: system.switch_cpus3 progress event, total committed:113162576, progress insts committed: 37781141, IPC: 03.77434
15661257077664: Event_284: system.switch_cpus2 progress event, total committed:122128669, progress insts committed: 24209582, IPC: 02.41854
15661257077664: Event_283: system.switch_cpus1 progress event, total committed:33730270, progress insts committed: 11224778, IPC: 01.12136
15661257077664: Event_282: system.switch_cpus0 progress event, total committed:26776062, progress insts committed: 8702939, IPC: 0.869424
15664590410997: Event_282: system.switch_cpus0 progress event, total committed:36669967, progress insts committed: 9893905, IPC: 0.988401
15664590410997: Event_283: system.switch_cpus1 progress event, total committed:43399316, progress insts committed: 9669046, IPC: 0.965938
15664590410997: Event_284: system.switch_cpus2 progress event, total committed:174988362, progress insts committed: 52859693, IPC: 05.28068
15664590410997: Event_285: system.switch_cpus3 progress event, total committed:148866971, progress insts committed: 35704395, IPC: 03.56687
15667923744330: Event_285: system.switch_cpus3 progress event, total committed:184176661, progress insts committed: 35309690, IPC: 03.52744
15667923744330: Event_284: system.switch_cpus2 progress event, total committed:227864304, progress insts committed: 52875942, IPC: 05.28231
15667923744330: Event_283: system.switch_cpus1 progress event, total committed:53211095, progress insts committed: 9811779, IPC: 0.980197
15667923744330: Event_282: system.switch_cpus0 progress event, total committed:46015254, progress insts committed: 9345287, IPC: 0.933594
15671257077663: Event_282: system.switch_cpus0 progress event, total committed:57366801, progress insts committed: 11351547, IPC: 01.13402
15671257077663: Event_283: system.switch_cpus1 progress event, total committed:63598154, progress insts committed: 10387059, IPC: 01.03767
15671257077663: Event_284: system.switch_cpus2 progress event, total committed:280835566, progress insts committed: 52971262, IPC: 05.29183
15671257077663: Event_285: system.switch_cpus3 progress event, total committed:220417865, progress insts committed: 36241204, IPC: 003.6205
15674590410996: Event_285: system.switch_cpus3 progress event, total committed:258678554, progress insts committed: 38260689, IPC: 03.82224
15674590410996: Event_284: system.switch_cpus2 progress event, total committed:333953716, progress insts committed: 53118150, IPC: 005.3065
15674590410996: Event_283: system.switch_cpus1 progress event, total committed:74817247, progress insts committed: 11219093, IPC: 01.12079
15674590410996: Event_282: system.switch_cpus0 progress event, total committed:81544744, progress insts committed: 24177943, IPC: 02.41538
15677923744329: Event_282: system.switch_cpus0 progress event, total committed:105856054, progress insts committed: 24311310, IPC: 002.4287
15677923744329: Event_283: system.switch_cpus1 progress event, total committed:86728336, progress insts committed: 11911089, IPC: 01.18992
15677923744329: Event_284: system.switch_cpus2 progress event, total committed:387059009, progress insts committed: 53105293, IPC: 05.30522
15677923744329: Event_285: system.switch_cpus3 progress event, total committed:297096173, progress insts committed: 38417619, IPC: 03.83792
Exiting @ tick 15680189916864 because a thread reached the max instruction count
