
---------- Begin Simulation Statistics ----------
final_tick                               15680166963174                       # Number of ticks from beginning of simulation (restored from checkpoints and never reset)
host_inst_rate                                 162541                       # Simulator instruction rate (inst/s)
host_mem_usage                               17386784                       # Number of bytes of host memory used
host_op_rate                                   278409                       # Simulator op (including micro ops) rate (op/s)
host_seconds                                  3455.89                       # Real time elapsed on the host
host_tick_rate                                8365392                       # Simulator tick rate (ticks/s)
sim_freq                                 1000000000000                       # Frequency of simulated ticks
sim_insts                                   561722727                       # Number of instructions simulated
sim_ops                                     962150719                       # Number of ops (including micro ops) simulated
sim_seconds                                  0.028910                       # Number of seconds simulated
sim_ticks                                 28909844550                       # Number of ticks simulated
system.cpu0.Branches                                1                       # Number of branches fetched
system.cpu0.committedInsts                         16                       # Number of instructions committed
system.cpu0.committedOps                           22                       # Number of ops (including micro ops) committed
system.cpu0.idle_fraction                           0                       # Percentage of idle cycles
system.cpu0.l2bus.snoop_filter.hit_multi_requests            3                       # Number of requests hitting in the snoop filter with multiple (>1) holders of the requested data.
system.cpu0.l2bus.snoop_filter.hit_multi_snoops            0                       # Number of snoops hitting in the snoop filter with multiple (>1) holders of the requested data.
system.cpu0.l2bus.snoop_filter.hit_single_requests      1368650                       # Number of requests hitting in the snoop filter with a single holder of the requested data.
system.cpu0.l2bus.snoop_filter.hit_single_snoops         1747                       # Number of snoops hitting in the snoop filter with a single holder of the requested data.
system.cpu0.l2bus.snoop_filter.tot_requests      2683895                       # Total number of requests made to the snoop filter.
system.cpu0.l2bus.snoop_filter.tot_snoops         1747                       # Total number of snoops made to the snoop filter.
system.cpu0.mmucache.mmubus.snoop_filter.hit_multi_requests            0                       # Number of requests hitting in the snoop filter with multiple (>1) holders of the requested data.
system.cpu0.mmucache.mmubus.snoop_filter.hit_multi_snoops            0                       # Number of snoops hitting in the snoop filter with multiple (>1) holders of the requested data.
system.cpu0.mmucache.mmubus.snoop_filter.hit_single_requests            0                       # Number of requests hitting in the snoop filter with a single holder of the requested data.
system.cpu0.mmucache.mmubus.snoop_filter.hit_single_snoops            0                       # Number of snoops hitting in the snoop filter with a single holder of the requested data.
system.cpu0.mmucache.mmubus.snoop_filter.tot_requests            0                       # Total number of requests made to the snoop filter.
system.cpu0.mmucache.mmubus.snoop_filter.tot_snoops            0                       # Total number of snoops made to the snoop filter.
system.cpu0.not_idle_fraction                       1                       # Percentage of non-idle cycles
system.cpu0.numCycles                              30                       # number of cpu cycles simulated
system.cpu0.numWorkItemsCompleted                   0                       # number of work items this cpu completed
system.cpu0.numWorkItemsStarted                     0                       # number of work items this cpu started
system.cpu0.num_busy_cycles                        30                       # Number of busy cycles
system.cpu0.num_cc_register_reads                   5                       # number of times the CC registers were read
system.cpu0.num_cc_register_writes                  6                       # number of times the CC registers were written
system.cpu0.num_conditional_control_insts            1                       # number of instructions that are conditional controls
system.cpu0.num_fp_alu_accesses                    13                       # Number of float alu accesses
system.cpu0.num_fp_insts                           13                       # number of float instructions
system.cpu0.num_fp_register_reads                  23                       # number of times the floating registers were read
system.cpu0.num_fp_register_writes                 12                       # number of times the floating registers were written
system.cpu0.num_func_calls                          0                       # number of times a function call or return occured
system.cpu0.num_idle_cycles                         0                       # Number of idle cycles
system.cpu0.num_int_alu_accesses                   14                       # Number of integer alu accesses
system.cpu0.num_int_insts                          14                       # number of integer instructions
system.cpu0.num_int_register_reads                 31                       # number of times the integer registers were read
system.cpu0.num_int_register_writes                 8                       # number of times the integer registers were written
system.cpu0.num_load_insts                          6                       # Number of load instructions
system.cpu0.num_mem_refs                            7                       # number of memory refs
system.cpu0.num_store_insts                         1                       # Number of store instructions
system.cpu0.num_vec_alu_accesses                    0                       # Number of vector alu accesses
system.cpu0.num_vec_insts                           0                       # number of vector instructions
system.cpu0.num_vec_register_reads                  0                       # number of times the vector registers were read
system.cpu0.num_vec_register_writes                 0                       # number of times the vector registers were written
system.cpu0.op_class::No_OpClass                    0      0.00%      0.00% # Class of executed instruction
system.cpu0.op_class::IntAlu                        9     40.91%     40.91% # Class of executed instruction
system.cpu0.op_class::IntMult                       0      0.00%     40.91% # Class of executed instruction
system.cpu0.op_class::IntDiv                        0      0.00%     40.91% # Class of executed instruction
system.cpu0.op_class::FloatAdd                      0      0.00%     40.91% # Class of executed instruction
system.cpu0.op_class::FloatCmp                      0      0.00%     40.91% # Class of executed instruction
system.cpu0.op_class::FloatCvt                      0      0.00%     40.91% # Class of executed instruction
system.cpu0.op_class::FloatMult                     0      0.00%     40.91% # Class of executed instruction
system.cpu0.op_class::FloatMultAcc                  0      0.00%     40.91% # Class of executed instruction
system.cpu0.op_class::FloatDiv                      0      0.00%     40.91% # Class of executed instruction
system.cpu0.op_class::FloatMisc                     0      0.00%     40.91% # Class of executed instruction
system.cpu0.op_class::FloatSqrt                     0      0.00%     40.91% # Class of executed instruction
system.cpu0.op_class::SimdAdd                       0      0.00%     40.91% # Class of executed instruction
system.cpu0.op_class::SimdAddAcc                    0      0.00%     40.91% # Class of executed instruction
system.cpu0.op_class::SimdAlu                       0      0.00%     40.91% # Class of executed instruction
system.cpu0.op_class::SimdCmp                       0      0.00%     40.91% # Class of executed instruction
system.cpu0.op_class::SimdCvt                       0      0.00%     40.91% # Class of executed instruction
system.cpu0.op_class::SimdMisc                      0      0.00%     40.91% # Class of executed instruction
system.cpu0.op_class::SimdMult                      0      0.00%     40.91% # Class of executed instruction
system.cpu0.op_class::SimdMultAcc                   0      0.00%     40.91% # Class of executed instruction
system.cpu0.op_class::SimdShift                     0      0.00%     40.91% # Class of executed instruction
system.cpu0.op_class::SimdShiftAcc                  0      0.00%     40.91% # Class of executed instruction
system.cpu0.op_class::SimdDiv                       0      0.00%     40.91% # Class of executed instruction
system.cpu0.op_class::SimdSqrt                      0      0.00%     40.91% # Class of executed instruction
system.cpu0.op_class::SimdFloatAdd                  4     18.18%     59.09% # Class of executed instruction
system.cpu0.op_class::SimdFloatAlu                  0      0.00%     59.09% # Class of executed instruction
system.cpu0.op_class::SimdFloatCmp                  0      0.00%     59.09% # Class of executed instruction
system.cpu0.op_class::SimdFloatCvt                  0      0.00%     59.09% # Class of executed instruction
system.cpu0.op_class::SimdFloatDiv                  0      0.00%     59.09% # Class of executed instruction
system.cpu0.op_class::SimdFloatMisc                 0      0.00%     59.09% # Class of executed instruction
system.cpu0.op_class::SimdFloatMult                 2      9.09%     68.18% # Class of executed instruction
system.cpu0.op_class::SimdFloatMultAcc              0      0.00%     68.18% # Class of executed instruction
system.cpu0.op_class::SimdFloatSqrt                 0      0.00%     68.18% # Class of executed instruction
system.cpu0.op_class::SimdReduceAdd                 0      0.00%     68.18% # Class of executed instruction
system.cpu0.op_class::SimdReduceAlu                 0      0.00%     68.18% # Class of executed instruction
system.cpu0.op_class::SimdReduceCmp                 0      0.00%     68.18% # Class of executed instruction
system.cpu0.op_class::SimdFloatReduceAdd            0      0.00%     68.18% # Class of executed instruction
system.cpu0.op_class::SimdFloatReduceCmp            0      0.00%     68.18% # Class of executed instruction
system.cpu0.op_class::SimdAes                       0      0.00%     68.18% # Class of executed instruction
system.cpu0.op_class::SimdAesMix                    0      0.00%     68.18% # Class of executed instruction
system.cpu0.op_class::SimdSha1Hash                  0      0.00%     68.18% # Class of executed instruction
system.cpu0.op_class::SimdSha1Hash2                 0      0.00%     68.18% # Class of executed instruction
system.cpu0.op_class::SimdSha256Hash                0      0.00%     68.18% # Class of executed instruction
system.cpu0.op_class::SimdSha256Hash2               0      0.00%     68.18% # Class of executed instruction
system.cpu0.op_class::SimdShaSigma2                 0      0.00%     68.18% # Class of executed instruction
system.cpu0.op_class::SimdShaSigma3                 0      0.00%     68.18% # Class of executed instruction
system.cpu0.op_class::SimdPredAlu                   0      0.00%     68.18% # Class of executed instruction
system.cpu0.op_class::MemRead                       2      9.09%     77.27% # Class of executed instruction
system.cpu0.op_class::MemWrite                      0      0.00%     77.27% # Class of executed instruction
system.cpu0.op_class::FloatMemRead                  4     18.18%     95.45% # Class of executed instruction
system.cpu0.op_class::FloatMemWrite                 1      4.55%    100.00% # Class of executed instruction
system.cpu0.op_class::IprAccess                     0      0.00%    100.00% # Class of executed instruction
system.cpu0.op_class::InstPrefetch                  0      0.00%    100.00% # Class of executed instruction
system.cpu0.op_class::total                        22                       # Class of executed instruction
system.cpu0.workload.numSyscalls                    0                       # Number of system calls
system.cpu1.Branches                                5                       # Number of branches fetched
system.cpu1.committedInsts                         15                       # Number of instructions committed
system.cpu1.committedOps                           27                       # Number of ops (including micro ops) committed
system.cpu1.idle_fraction                           0                       # Percentage of idle cycles
system.cpu1.l2bus.snoop_filter.hit_multi_requests           51                       # Number of requests hitting in the snoop filter with multiple (>1) holders of the requested data.
system.cpu1.l2bus.snoop_filter.hit_multi_snoops            2                       # Number of snoops hitting in the snoop filter with multiple (>1) holders of the requested data.
system.cpu1.l2bus.snoop_filter.hit_single_requests      1856004                       # Number of requests hitting in the snoop filter with a single holder of the requested data.
system.cpu1.l2bus.snoop_filter.hit_single_snoops          240                       # Number of snoops hitting in the snoop filter with a single holder of the requested data.
system.cpu1.l2bus.snoop_filter.tot_requests      3699492                       # Total number of requests made to the snoop filter.
system.cpu1.l2bus.snoop_filter.tot_snoops          242                       # Total number of snoops made to the snoop filter.
system.cpu1.mmucache.mmubus.snoop_filter.hit_multi_requests            0                       # Number of requests hitting in the snoop filter with multiple (>1) holders of the requested data.
system.cpu1.mmucache.mmubus.snoop_filter.hit_multi_snoops            0                       # Number of snoops hitting in the snoop filter with multiple (>1) holders of the requested data.
system.cpu1.mmucache.mmubus.snoop_filter.hit_single_requests            0                       # Number of requests hitting in the snoop filter with a single holder of the requested data.
system.cpu1.mmucache.mmubus.snoop_filter.hit_single_snoops            0                       # Number of snoops hitting in the snoop filter with a single holder of the requested data.
system.cpu1.mmucache.mmubus.snoop_filter.tot_requests            0                       # Total number of requests made to the snoop filter.
system.cpu1.mmucache.mmubus.snoop_filter.tot_snoops            0                       # Total number of snoops made to the snoop filter.
system.cpu1.not_idle_fraction                       1                       # Percentage of non-idle cycles
system.cpu1.numCycles                              32                       # number of cpu cycles simulated
system.cpu1.numWorkItemsCompleted                   0                       # number of work items this cpu completed
system.cpu1.numWorkItemsStarted                     0                       # number of work items this cpu started
system.cpu1.num_busy_cycles                        32                       # Number of busy cycles
system.cpu1.num_cc_register_reads                  16                       # number of times the CC registers were read
system.cpu1.num_cc_register_writes                  8                       # number of times the CC registers were written
system.cpu1.num_conditional_control_insts            3                       # number of instructions that are conditional controls
system.cpu1.num_fp_alu_accesses                     0                       # Number of float alu accesses
system.cpu1.num_fp_insts                            0                       # number of float instructions
system.cpu1.num_fp_register_reads                   0                       # number of times the floating registers were read
system.cpu1.num_fp_register_writes                  0                       # number of times the floating registers were written
system.cpu1.num_func_calls                          2                       # number of times a function call or return occured
system.cpu1.num_idle_cycles                         0                       # Number of idle cycles
system.cpu1.num_int_alu_accesses                   27                       # Number of integer alu accesses
system.cpu1.num_int_insts                          27                       # number of integer instructions
system.cpu1.num_int_register_reads                 52                       # number of times the integer registers were read
system.cpu1.num_int_register_writes                21                       # number of times the integer registers were written
system.cpu1.num_load_insts                          5                       # Number of load instructions
system.cpu1.num_mem_refs                            6                       # number of memory refs
system.cpu1.num_store_insts                         1                       # Number of store instructions
system.cpu1.num_vec_alu_accesses                    0                       # Number of vector alu accesses
system.cpu1.num_vec_insts                           0                       # number of vector instructions
system.cpu1.num_vec_register_reads                  0                       # number of times the vector registers were read
system.cpu1.num_vec_register_writes                 0                       # number of times the vector registers were written
system.cpu1.op_class::No_OpClass                    0      0.00%      0.00% # Class of executed instruction
system.cpu1.op_class::IntAlu                       21     77.78%     77.78% # Class of executed instruction
system.cpu1.op_class::IntMult                       0      0.00%     77.78% # Class of executed instruction
system.cpu1.op_class::IntDiv                        0      0.00%     77.78% # Class of executed instruction
system.cpu1.op_class::FloatAdd                      0      0.00%     77.78% # Class of executed instruction
system.cpu1.op_class::FloatCmp                      0      0.00%     77.78% # Class of executed instruction
system.cpu1.op_class::FloatCvt                      0      0.00%     77.78% # Class of executed instruction
system.cpu1.op_class::FloatMult                     0      0.00%     77.78% # Class of executed instruction
system.cpu1.op_class::FloatMultAcc                  0      0.00%     77.78% # Class of executed instruction
system.cpu1.op_class::FloatDiv                      0      0.00%     77.78% # Class of executed instruction
system.cpu1.op_class::FloatMisc                     0      0.00%     77.78% # Class of executed instruction
system.cpu1.op_class::FloatSqrt                     0      0.00%     77.78% # Class of executed instruction
system.cpu1.op_class::SimdAdd                       0      0.00%     77.78% # Class of executed instruction
system.cpu1.op_class::SimdAddAcc                    0      0.00%     77.78% # Class of executed instruction
system.cpu1.op_class::SimdAlu                       0      0.00%     77.78% # Class of executed instruction
system.cpu1.op_class::SimdCmp                       0      0.00%     77.78% # Class of executed instruction
system.cpu1.op_class::SimdCvt                       0      0.00%     77.78% # Class of executed instruction
system.cpu1.op_class::SimdMisc                      0      0.00%     77.78% # Class of executed instruction
system.cpu1.op_class::SimdMult                      0      0.00%     77.78% # Class of executed instruction
system.cpu1.op_class::SimdMultAcc                   0      0.00%     77.78% # Class of executed instruction
system.cpu1.op_class::SimdShift                     0      0.00%     77.78% # Class of executed instruction
system.cpu1.op_class::SimdShiftAcc                  0      0.00%     77.78% # Class of executed instruction
system.cpu1.op_class::SimdDiv                       0      0.00%     77.78% # Class of executed instruction
system.cpu1.op_class::SimdSqrt                      0      0.00%     77.78% # Class of executed instruction
system.cpu1.op_class::SimdFloatAdd                  0      0.00%     77.78% # Class of executed instruction
system.cpu1.op_class::SimdFloatAlu                  0      0.00%     77.78% # Class of executed instruction
system.cpu1.op_class::SimdFloatCmp                  0      0.00%     77.78% # Class of executed instruction
system.cpu1.op_class::SimdFloatCvt                  0      0.00%     77.78% # Class of executed instruction
system.cpu1.op_class::SimdFloatDiv                  0      0.00%     77.78% # Class of executed instruction
system.cpu1.op_class::SimdFloatMisc                 0      0.00%     77.78% # Class of executed instruction
system.cpu1.op_class::SimdFloatMult                 0      0.00%     77.78% # Class of executed instruction
system.cpu1.op_class::SimdFloatMultAcc              0      0.00%     77.78% # Class of executed instruction
system.cpu1.op_class::SimdFloatSqrt                 0      0.00%     77.78% # Class of executed instruction
system.cpu1.op_class::SimdReduceAdd                 0      0.00%     77.78% # Class of executed instruction
system.cpu1.op_class::SimdReduceAlu                 0      0.00%     77.78% # Class of executed instruction
system.cpu1.op_class::SimdReduceCmp                 0      0.00%     77.78% # Class of executed instruction
system.cpu1.op_class::SimdFloatReduceAdd            0      0.00%     77.78% # Class of executed instruction
system.cpu1.op_class::SimdFloatReduceCmp            0      0.00%     77.78% # Class of executed instruction
system.cpu1.op_class::SimdAes                       0      0.00%     77.78% # Class of executed instruction
system.cpu1.op_class::SimdAesMix                    0      0.00%     77.78% # Class of executed instruction
system.cpu1.op_class::SimdSha1Hash                  0      0.00%     77.78% # Class of executed instruction
system.cpu1.op_class::SimdSha1Hash2                 0      0.00%     77.78% # Class of executed instruction
system.cpu1.op_class::SimdSha256Hash                0      0.00%     77.78% # Class of executed instruction
system.cpu1.op_class::SimdSha256Hash2               0      0.00%     77.78% # Class of executed instruction
system.cpu1.op_class::SimdShaSigma2                 0      0.00%     77.78% # Class of executed instruction
system.cpu1.op_class::SimdShaSigma3                 0      0.00%     77.78% # Class of executed instruction
system.cpu1.op_class::SimdPredAlu                   0      0.00%     77.78% # Class of executed instruction
system.cpu1.op_class::MemRead                       5     18.52%     96.30% # Class of executed instruction
system.cpu1.op_class::MemWrite                      1      3.70%    100.00% # Class of executed instruction
system.cpu1.op_class::FloatMemRead                  0      0.00%    100.00% # Class of executed instruction
system.cpu1.op_class::FloatMemWrite                 0      0.00%    100.00% # Class of executed instruction
system.cpu1.op_class::IprAccess                     0      0.00%    100.00% # Class of executed instruction
system.cpu1.op_class::InstPrefetch                  0      0.00%    100.00% # Class of executed instruction
system.cpu1.op_class::total                        27                       # Class of executed instruction
system.cpu1.workload.numSyscalls                    0                       # Number of system calls
system.cpu2.Branches                                1                       # Number of branches fetched
system.cpu2.committedInsts                         15                       # Number of instructions committed
system.cpu2.committedOps                           25                       # Number of ops (including micro ops) committed
system.cpu2.idle_fraction                           0                       # Percentage of idle cycles
system.cpu2.l2bus.snoop_filter.hit_multi_requests            3                       # Number of requests hitting in the snoop filter with multiple (>1) holders of the requested data.
system.cpu2.l2bus.snoop_filter.hit_multi_snoops            0                       # Number of snoops hitting in the snoop filter with multiple (>1) holders of the requested data.
system.cpu2.l2bus.snoop_filter.hit_single_requests      2529403                       # Number of requests hitting in the snoop filter with a single holder of the requested data.
system.cpu2.l2bus.snoop_filter.hit_single_snoops          212                       # Number of snoops hitting in the snoop filter with a single holder of the requested data.
system.cpu2.l2bus.snoop_filter.tot_requests      5059510                       # Total number of requests made to the snoop filter.
system.cpu2.l2bus.snoop_filter.tot_snoops          212                       # Total number of snoops made to the snoop filter.
system.cpu2.mmucache.mmubus.snoop_filter.hit_multi_requests            0                       # Number of requests hitting in the snoop filter with multiple (>1) holders of the requested data.
system.cpu2.mmucache.mmubus.snoop_filter.hit_multi_snoops            0                       # Number of snoops hitting in the snoop filter with multiple (>1) holders of the requested data.
system.cpu2.mmucache.mmubus.snoop_filter.hit_single_requests            0                       # Number of requests hitting in the snoop filter with a single holder of the requested data.
system.cpu2.mmucache.mmubus.snoop_filter.hit_single_snoops            0                       # Number of snoops hitting in the snoop filter with a single holder of the requested data.
system.cpu2.mmucache.mmubus.snoop_filter.tot_requests            0                       # Total number of requests made to the snoop filter.
system.cpu2.mmucache.mmubus.snoop_filter.tot_snoops            0                       # Total number of snoops made to the snoop filter.
system.cpu2.not_idle_fraction                       1                       # Percentage of non-idle cycles
system.cpu2.numCycles                              32                       # number of cpu cycles simulated
system.cpu2.numWorkItemsCompleted                   0                       # number of work items this cpu completed
system.cpu2.numWorkItemsStarted                     0                       # number of work items this cpu started
system.cpu2.num_busy_cycles                        32                       # Number of busy cycles
system.cpu2.num_cc_register_reads                   7                       # number of times the CC registers were read
system.cpu2.num_cc_register_writes                  4                       # number of times the CC registers were written
system.cpu2.num_conditional_control_insts            1                       # number of instructions that are conditional controls
system.cpu2.num_fp_alu_accesses                    12                       # Number of float alu accesses
system.cpu2.num_fp_insts                           12                       # number of float instructions
system.cpu2.num_fp_register_reads                  23                       # number of times the floating registers were read
system.cpu2.num_fp_register_writes                 11                       # number of times the floating registers were written
system.cpu2.num_func_calls                          0                       # number of times a function call or return occured
system.cpu2.num_idle_cycles                         0                       # Number of idle cycles
system.cpu2.num_int_alu_accesses                   17                       # Number of integer alu accesses
system.cpu2.num_int_insts                          17                       # number of integer instructions
system.cpu2.num_int_register_reads                 32                       # number of times the integer registers were read
system.cpu2.num_int_register_writes                12                       # number of times the integer registers were written
system.cpu2.num_load_insts                          5                       # Number of load instructions
system.cpu2.num_mem_refs                            5                       # number of memory refs
system.cpu2.num_store_insts                         0                       # Number of store instructions
system.cpu2.num_vec_alu_accesses                    0                       # Number of vector alu accesses
system.cpu2.num_vec_insts                           0                       # number of vector instructions
system.cpu2.num_vec_register_reads                  0                       # number of times the vector registers were read
system.cpu2.num_vec_register_writes                 0                       # number of times the vector registers were written
system.cpu2.op_class::No_OpClass                    0      0.00%      0.00% # Class of executed instruction
system.cpu2.op_class::IntAlu                        9     36.00%     36.00% # Class of executed instruction
system.cpu2.op_class::IntMult                       0      0.00%     36.00% # Class of executed instruction
system.cpu2.op_class::IntDiv                        0      0.00%     36.00% # Class of executed instruction
system.cpu2.op_class::FloatAdd                      0      0.00%     36.00% # Class of executed instruction
system.cpu2.op_class::FloatCmp                      0      0.00%     36.00% # Class of executed instruction
system.cpu2.op_class::FloatCvt                      0      0.00%     36.00% # Class of executed instruction
system.cpu2.op_class::FloatMult                     0      0.00%     36.00% # Class of executed instruction
system.cpu2.op_class::FloatMultAcc                  0      0.00%     36.00% # Class of executed instruction
system.cpu2.op_class::FloatDiv                      0      0.00%     36.00% # Class of executed instruction
system.cpu2.op_class::FloatMisc                     0      0.00%     36.00% # Class of executed instruction
system.cpu2.op_class::FloatSqrt                     0      0.00%     36.00% # Class of executed instruction
system.cpu2.op_class::SimdAdd                       0      0.00%     36.00% # Class of executed instruction
system.cpu2.op_class::SimdAddAcc                    0      0.00%     36.00% # Class of executed instruction
system.cpu2.op_class::SimdAlu                       0      0.00%     36.00% # Class of executed instruction
system.cpu2.op_class::SimdCmp                       0      0.00%     36.00% # Class of executed instruction
system.cpu2.op_class::SimdCvt                       0      0.00%     36.00% # Class of executed instruction
system.cpu2.op_class::SimdMisc                      3     12.00%     48.00% # Class of executed instruction
system.cpu2.op_class::SimdMult                      0      0.00%     48.00% # Class of executed instruction
system.cpu2.op_class::SimdMultAcc                   0      0.00%     48.00% # Class of executed instruction
system.cpu2.op_class::SimdShift                     0      0.00%     48.00% # Class of executed instruction
system.cpu2.op_class::SimdShiftAcc                  0      0.00%     48.00% # Class of executed instruction
system.cpu2.op_class::SimdDiv                       0      0.00%     48.00% # Class of executed instruction
system.cpu2.op_class::SimdSqrt                      0      0.00%     48.00% # Class of executed instruction
system.cpu2.op_class::SimdFloatAdd                  2      8.00%     56.00% # Class of executed instruction
system.cpu2.op_class::SimdFloatAlu                  0      0.00%     56.00% # Class of executed instruction
system.cpu2.op_class::SimdFloatCmp                  0      0.00%     56.00% # Class of executed instruction
system.cpu2.op_class::SimdFloatCvt                  4     16.00%     72.00% # Class of executed instruction
system.cpu2.op_class::SimdFloatDiv                  0      0.00%     72.00% # Class of executed instruction
system.cpu2.op_class::SimdFloatMisc                 0      0.00%     72.00% # Class of executed instruction
system.cpu2.op_class::SimdFloatMult                 2      8.00%     80.00% # Class of executed instruction
system.cpu2.op_class::SimdFloatMultAcc              0      0.00%     80.00% # Class of executed instruction
system.cpu2.op_class::SimdFloatSqrt                 0      0.00%     80.00% # Class of executed instruction
system.cpu2.op_class::SimdReduceAdd                 0      0.00%     80.00% # Class of executed instruction
system.cpu2.op_class::SimdReduceAlu                 0      0.00%     80.00% # Class of executed instruction
system.cpu2.op_class::SimdReduceCmp                 0      0.00%     80.00% # Class of executed instruction
system.cpu2.op_class::SimdFloatReduceAdd            0      0.00%     80.00% # Class of executed instruction
system.cpu2.op_class::SimdFloatReduceCmp            0      0.00%     80.00% # Class of executed instruction
system.cpu2.op_class::SimdAes                       0      0.00%     80.00% # Class of executed instruction
system.cpu2.op_class::SimdAesMix                    0      0.00%     80.00% # Class of executed instruction
system.cpu2.op_class::SimdSha1Hash                  0      0.00%     80.00% # Class of executed instruction
system.cpu2.op_class::SimdSha1Hash2                 0      0.00%     80.00% # Class of executed instruction
system.cpu2.op_class::SimdSha256Hash                0      0.00%     80.00% # Class of executed instruction
system.cpu2.op_class::SimdSha256Hash2               0      0.00%     80.00% # Class of executed instruction
system.cpu2.op_class::SimdShaSigma2                 0      0.00%     80.00% # Class of executed instruction
system.cpu2.op_class::SimdShaSigma3                 0      0.00%     80.00% # Class of executed instruction
system.cpu2.op_class::SimdPredAlu                   0      0.00%     80.00% # Class of executed instruction
system.cpu2.op_class::MemRead                       4     16.00%     96.00% # Class of executed instruction
system.cpu2.op_class::MemWrite                      0      0.00%     96.00% # Class of executed instruction
system.cpu2.op_class::FloatMemRead                  1      4.00%    100.00% # Class of executed instruction
system.cpu2.op_class::FloatMemWrite                 0      0.00%    100.00% # Class of executed instruction
system.cpu2.op_class::IprAccess                     0      0.00%    100.00% # Class of executed instruction
system.cpu2.op_class::InstPrefetch                  0      0.00%    100.00% # Class of executed instruction
system.cpu2.op_class::total                        25                       # Class of executed instruction
system.cpu2.workload.numSyscalls                    0                       # Number of system calls
system.cpu3.Branches                                3                       # Number of branches fetched
system.cpu3.committedInsts                         16                       # Number of instructions committed
system.cpu3.committedOps                           27                       # Number of ops (including micro ops) committed
system.cpu3.idle_fraction                           0                       # Percentage of idle cycles
system.cpu3.l2bus.snoop_filter.hit_multi_requests          218                       # Number of requests hitting in the snoop filter with multiple (>1) holders of the requested data.
system.cpu3.l2bus.snoop_filter.hit_multi_snoops            0                       # Number of snoops hitting in the snoop filter with multiple (>1) holders of the requested data.
system.cpu3.l2bus.snoop_filter.hit_single_requests       301061                       # Number of requests hitting in the snoop filter with a single holder of the requested data.
system.cpu3.l2bus.snoop_filter.hit_single_snoops          413                       # Number of snoops hitting in the snoop filter with a single holder of the requested data.
system.cpu3.l2bus.snoop_filter.tot_requests       603001                       # Total number of requests made to the snoop filter.
system.cpu3.l2bus.snoop_filter.tot_snoops          413                       # Total number of snoops made to the snoop filter.
system.cpu3.mmucache.mmubus.snoop_filter.hit_multi_requests            0                       # Number of requests hitting in the snoop filter with multiple (>1) holders of the requested data.
system.cpu3.mmucache.mmubus.snoop_filter.hit_multi_snoops            0                       # Number of snoops hitting in the snoop filter with multiple (>1) holders of the requested data.
system.cpu3.mmucache.mmubus.snoop_filter.hit_single_requests            0                       # Number of requests hitting in the snoop filter with a single holder of the requested data.
system.cpu3.mmucache.mmubus.snoop_filter.hit_single_snoops            0                       # Number of snoops hitting in the snoop filter with a single holder of the requested data.
system.cpu3.mmucache.mmubus.snoop_filter.tot_requests            0                       # Total number of requests made to the snoop filter.
system.cpu3.mmucache.mmubus.snoop_filter.tot_snoops            0                       # Total number of snoops made to the snoop filter.
system.cpu3.not_idle_fraction                       1                       # Percentage of non-idle cycles
system.cpu3.numCycles                              30                       # number of cpu cycles simulated
system.cpu3.numWorkItemsCompleted                   0                       # number of work items this cpu completed
system.cpu3.numWorkItemsStarted                     0                       # number of work items this cpu started
system.cpu3.num_busy_cycles                        30                       # Number of busy cycles
system.cpu3.num_cc_register_reads                  22                       # number of times the CC registers were read
system.cpu3.num_cc_register_writes                 16                       # number of times the CC registers were written
system.cpu3.num_conditional_control_insts            3                       # number of instructions that are conditional controls
system.cpu3.num_fp_alu_accesses                     8                       # Number of float alu accesses
system.cpu3.num_fp_insts                            8                       # number of float instructions
system.cpu3.num_fp_register_reads                   2                       # number of times the floating registers were read
system.cpu3.num_fp_register_writes                  7                       # number of times the floating registers were written
system.cpu3.num_func_calls                          0                       # number of times a function call or return occured
system.cpu3.num_idle_cycles                         0                       # Number of idle cycles
system.cpu3.num_int_alu_accesses                   22                       # Number of integer alu accesses
system.cpu3.num_int_insts                          22                       # number of integer instructions
system.cpu3.num_int_register_reads                 41                       # number of times the integer registers were read
system.cpu3.num_int_register_writes                16                       # number of times the integer registers were written
system.cpu3.num_load_insts                          5                       # Number of load instructions
system.cpu3.num_mem_refs                            5                       # number of memory refs
system.cpu3.num_store_insts                         0                       # Number of store instructions
system.cpu3.num_vec_alu_accesses                    0                       # Number of vector alu accesses
system.cpu3.num_vec_insts                           0                       # number of vector instructions
system.cpu3.num_vec_register_reads                  0                       # number of times the vector registers were read
system.cpu3.num_vec_register_writes                 0                       # number of times the vector registers were written
system.cpu3.op_class::No_OpClass                    0      0.00%      0.00% # Class of executed instruction
system.cpu3.op_class::IntAlu                       17     62.96%     62.96% # Class of executed instruction
system.cpu3.op_class::IntMult                       0      0.00%     62.96% # Class of executed instruction
system.cpu3.op_class::IntDiv                        0      0.00%     62.96% # Class of executed instruction
system.cpu3.op_class::FloatAdd                      4     14.81%     77.78% # Class of executed instruction
system.cpu3.op_class::FloatCmp                      0      0.00%     77.78% # Class of executed instruction
system.cpu3.op_class::FloatCvt                      0      0.00%     77.78% # Class of executed instruction
system.cpu3.op_class::FloatMult                     0      0.00%     77.78% # Class of executed instruction
system.cpu3.op_class::FloatMultAcc                  0      0.00%     77.78% # Class of executed instruction
system.cpu3.op_class::FloatDiv                      0      0.00%     77.78% # Class of executed instruction
system.cpu3.op_class::FloatMisc                     0      0.00%     77.78% # Class of executed instruction
system.cpu3.op_class::FloatSqrt                     0      0.00%     77.78% # Class of executed instruction
system.cpu3.op_class::SimdAdd                       0      0.00%     77.78% # Class of executed instruction
system.cpu3.op_class::SimdAddAcc                    0      0.00%     77.78% # Class of executed instruction
system.cpu3.op_class::SimdAlu                       0      0.00%     77.78% # Class of executed instruction
system.cpu3.op_class::SimdCmp                       0      0.00%     77.78% # Class of executed instruction
system.cpu3.op_class::SimdCvt                       0      0.00%     77.78% # Class of executed instruction
system.cpu3.op_class::SimdMisc                      0      0.00%     77.78% # Class of executed instruction
system.cpu3.op_class::SimdMult                      0      0.00%     77.78% # Class of executed instruction
system.cpu3.op_class::SimdMultAcc                   0      0.00%     77.78% # Class of executed instruction
system.cpu3.op_class::SimdShift                     0      0.00%     77.78% # Class of executed instruction
system.cpu3.op_class::SimdShiftAcc                  0      0.00%     77.78% # Class of executed instruction
system.cpu3.op_class::SimdDiv                       0      0.00%     77.78% # Class of executed instruction
system.cpu3.op_class::SimdSqrt                      0      0.00%     77.78% # Class of executed instruction
system.cpu3.op_class::SimdFloatAdd                  0      0.00%     77.78% # Class of executed instruction
system.cpu3.op_class::SimdFloatAlu                  0      0.00%     77.78% # Class of executed instruction
system.cpu3.op_class::SimdFloatCmp                  0      0.00%     77.78% # Class of executed instruction
system.cpu3.op_class::SimdFloatCvt                  1      3.70%     81.48% # Class of executed instruction
system.cpu3.op_class::SimdFloatDiv                  0      0.00%     81.48% # Class of executed instruction
system.cpu3.op_class::SimdFloatMisc                 0      0.00%     81.48% # Class of executed instruction
system.cpu3.op_class::SimdFloatMult                 0      0.00%     81.48% # Class of executed instruction
system.cpu3.op_class::SimdFloatMultAcc              0      0.00%     81.48% # Class of executed instruction
system.cpu3.op_class::SimdFloatSqrt                 0      0.00%     81.48% # Class of executed instruction
system.cpu3.op_class::SimdReduceAdd                 0      0.00%     81.48% # Class of executed instruction
system.cpu3.op_class::SimdReduceAlu                 0      0.00%     81.48% # Class of executed instruction
system.cpu3.op_class::SimdReduceCmp                 0      0.00%     81.48% # Class of executed instruction
system.cpu3.op_class::SimdFloatReduceAdd            0      0.00%     81.48% # Class of executed instruction
system.cpu3.op_class::SimdFloatReduceCmp            0      0.00%     81.48% # Class of executed instruction
system.cpu3.op_class::SimdAes                       0      0.00%     81.48% # Class of executed instruction
system.cpu3.op_class::SimdAesMix                    0      0.00%     81.48% # Class of executed instruction
system.cpu3.op_class::SimdSha1Hash                  0      0.00%     81.48% # Class of executed instruction
system.cpu3.op_class::SimdSha1Hash2                 0      0.00%     81.48% # Class of executed instruction
system.cpu3.op_class::SimdSha256Hash                0      0.00%     81.48% # Class of executed instruction
system.cpu3.op_class::SimdSha256Hash2               0      0.00%     81.48% # Class of executed instruction
system.cpu3.op_class::SimdShaSigma2                 0      0.00%     81.48% # Class of executed instruction
system.cpu3.op_class::SimdShaSigma3                 0      0.00%     81.48% # Class of executed instruction
system.cpu3.op_class::SimdPredAlu                   0      0.00%     81.48% # Class of executed instruction
system.cpu3.op_class::MemRead                       2      7.41%     88.89% # Class of executed instruction
system.cpu3.op_class::MemWrite                      0      0.00%     88.89% # Class of executed instruction
system.cpu3.op_class::FloatMemRead                  3     11.11%    100.00% # Class of executed instruction
system.cpu3.op_class::FloatMemWrite                 0      0.00%    100.00% # Class of executed instruction
system.cpu3.op_class::IprAccess                     0      0.00%    100.00% # Class of executed instruction
system.cpu3.op_class::InstPrefetch                  0      0.00%    100.00% # Class of executed instruction
system.cpu3.op_class::total                        27                       # Class of executed instruction
system.cpu3.workload.numSyscalls                    0                       # Number of system calls
system.l3bus.snoop_filter.hit_multi_requests            0                       # Number of requests hitting in the snoop filter with multiple (>1) holders of the requested data.
system.l3bus.snoop_filter.hit_multi_snoops            0                       # Number of snoops hitting in the snoop filter with multiple (>1) holders of the requested data.
system.l3bus.snoop_filter.hit_single_requests      1909893                       # Number of requests hitting in the snoop filter with a single holder of the requested data.
system.l3bus.snoop_filter.hit_single_snoops            0                       # Number of snoops hitting in the snoop filter with a single holder of the requested data.
system.l3bus.snoop_filter.tot_requests        3836935                       # Total number of requests made to the snoop filter.
system.l3bus.snoop_filter.tot_snoops                0                       # Total number of snoops made to the snoop filter.
system.membus.snoop_filter.hit_multi_requests            0                       # Number of requests hitting in the snoop filter with multiple (>1) holders of the requested data.
system.membus.snoop_filter.hit_multi_snoops            0                       # Number of snoops hitting in the snoop filter with multiple (>1) holders of the requested data.
system.membus.snoop_filter.hit_single_requests       933856                       # Number of requests hitting in the snoop filter with a single holder of the requested data.
system.membus.snoop_filter.hit_single_snoops            0                       # Number of snoops hitting in the snoop filter with a single holder of the requested data.
system.membus.snoop_filter.tot_requests       1948021                       # Total number of requests made to the snoop filter.
system.membus.snoop_filter.tot_snoops               0                       # Total number of snoops made to the snoop filter.
system.switch_cpus0.cc_regfile_reads         37864523                       # number of cc regfile reads
system.switch_cpus0.cc_regfile_writes        31427049                       # number of cc regfile writes
system.switch_cpus0.committedInsts           79495436                       # Number of Instructions Simulated
system.switch_cpus0.committedOps            122677241                       # Number of Ops (including micro ops) Simulated
system.switch_cpus0.cpi                      1.092092                       # CPI: Cycles Per Instruction
system.switch_cpus0.cpi_total                1.092092                       # CPI: Total CPI of All Threads
system.switch_cpus0.fp_regfile_reads        101783331                       # number of floating regfile reads
system.switch_cpus0.fp_regfile_writes        50376938                       # number of floating regfile writes
system.switch_cpus0.idleCycles                  50217                       # Total number of cycles that the CPU has spent unscheduled due to idling
system.switch_cpus0.iew.branchMispredicts         8007                       # Number of branch mispredicts detected at execute
system.switch_cpus0.iew.exec_branches         8173417                       # Number of branches executed
system.switch_cpus0.iew.exec_nop                    0                       # number of nop insts executed
system.switch_cpus0.iew.exec_rate            1.414267                       # Inst execution rate
system.switch_cpus0.iew.exec_refs            29335264                       # number of memory reference insts executed
system.switch_cpus0.iew.exec_stores           8073797                       # Number of stores executed
system.switch_cpus0.iew.exec_swp                    0                       # number of swp insts executed
system.switch_cpus0.iew.iewBlockCycles       20186963                       # Number of cycles IEW is blocking
system.switch_cpus0.iew.iewDispLoadInsts     21278631                       # Number of dispatched load instructions
system.switch_cpus0.iew.iewDispNonSpecInsts            3                       # Number of dispatched non-speculative instructions
system.switch_cpus0.iew.iewDispSquashedInsts          499                       # Number of squashed instructions skipped by dispatch
system.switch_cpus0.iew.iewDispStoreInsts      8087702                       # Number of dispatched store instructions
system.switch_cpus0.iew.iewDispatchedInsts    122889602                       # Number of instructions dispatched to IQ
system.switch_cpus0.iew.iewExecLoadInsts     21261467                       # Number of load instructions executed
system.switch_cpus0.iew.iewExecSquashedInsts        19530                       # Number of squashed instructions skipped in execute
system.switch_cpus0.iew.iewExecutedInsts    122781487                       # Number of executed instructions
system.switch_cpus0.iew.iewIQFullEvents         85748                       # Number of times the IQ has become full, causing a stall
system.switch_cpus0.iew.iewIdleCycles               0                       # Number of cycles IEW is idle
system.switch_cpus0.iew.iewLSQFullEvents     10130678                       # Number of times the LSQ has become full, causing a stall
system.switch_cpus0.iew.iewSquashCycles          8449                       # Number of cycles IEW is squashing
system.switch_cpus0.iew.iewUnblockCycles     10283841                       # Number of cycles IEW is unblocking
system.switch_cpus0.iew.memOrderViolationEvents          544                       # Number of memory order violations
system.switch_cpus0.iew.predictedNotTakenIncorrect         1789                       # Number of branches that were predicted not taken incorrectly
system.switch_cpus0.iew.predictedTakenIncorrect         6218                       # Number of branches that were predicted taken incorrectly
system.switch_cpus0.iew.wb_consumers        152950878                       # num instructions consuming a value
system.switch_cpus0.iew.wb_count            122759623                       # cumulative count of insts written-back
system.switch_cpus0.iew.wb_fanout            0.601749                       # average fanout of values written-back
system.switch_cpus0.iew.wb_producers         92037978                       # num instructions producing a value
system.switch_cpus0.iew.wb_rate              1.414016                       # insts written-back per cycle
system.switch_cpus0.iew.wb_sent             122769624                       # cumulative count of insts sent to commit
system.switch_cpus0.int_regfile_reads       118920577                       # number of integer regfile reads
system.switch_cpus0.int_regfile_writes       54092711                       # number of integer regfile writes
system.switch_cpus0.ipc                      0.915674                       # IPC: Instructions Per Cycle
system.switch_cpus0.ipc_total                0.915674                       # IPC: Total IPC of All Threads
system.switch_cpus0.iq.FU_type_0::No_OpClass         6589      0.01%      0.01% # Type of FU issued
system.switch_cpus0.iq.FU_type_0::IntAlu     63535526     51.74%     51.74% # Type of FU issued
system.switch_cpus0.iq.FU_type_0::IntMult         2354      0.00%     51.75% # Type of FU issued
system.switch_cpus0.iq.FU_type_0::IntDiv            0      0.00%     51.75% # Type of FU issued
system.switch_cpus0.iq.FU_type_0::FloatAdd      1966464      1.60%     53.35% # Type of FU issued
system.switch_cpus0.iq.FU_type_0::FloatCmp            0      0.00%     53.35% # Type of FU issued
system.switch_cpus0.iq.FU_type_0::FloatCvt            0      0.00%     53.35% # Type of FU issued
system.switch_cpus0.iq.FU_type_0::FloatMult            0      0.00%     53.35% # Type of FU issued
system.switch_cpus0.iq.FU_type_0::FloatMultAcc            0      0.00%     53.35% # Type of FU issued
system.switch_cpus0.iq.FU_type_0::FloatDiv            0      0.00%     53.35% # Type of FU issued
system.switch_cpus0.iq.FU_type_0::FloatMisc            0      0.00%     53.35% # Type of FU issued
system.switch_cpus0.iq.FU_type_0::FloatSqrt            0      0.00%     53.35% # Type of FU issued
system.switch_cpus0.iq.FU_type_0::SimdAdd            0      0.00%     53.35% # Type of FU issued
system.switch_cpus0.iq.FU_type_0::SimdAddAcc            0      0.00%     53.35% # Type of FU issued
system.switch_cpus0.iq.FU_type_0::SimdAlu      2590593      2.11%     55.46% # Type of FU issued
system.switch_cpus0.iq.FU_type_0::SimdCmp            0      0.00%     55.46% # Type of FU issued
system.switch_cpus0.iq.FU_type_0::SimdCvt            0      0.00%     55.46% # Type of FU issued
system.switch_cpus0.iq.FU_type_0::SimdMisc      1181932      0.96%     56.42% # Type of FU issued
system.switch_cpus0.iq.FU_type_0::SimdMult            0      0.00%     56.42% # Type of FU issued
system.switch_cpus0.iq.FU_type_0::SimdMultAcc            0      0.00%     56.42% # Type of FU issued
system.switch_cpus0.iq.FU_type_0::SimdShift            0      0.00%     56.42% # Type of FU issued
system.switch_cpus0.iq.FU_type_0::SimdShiftAcc            0      0.00%     56.42% # Type of FU issued
system.switch_cpus0.iq.FU_type_0::SimdDiv            0      0.00%     56.42% # Type of FU issued
system.switch_cpus0.iq.FU_type_0::SimdSqrt            0      0.00%     56.42% # Type of FU issued
system.switch_cpus0.iq.FU_type_0::SimdFloatAdd      9569322      7.79%     64.21% # Type of FU issued
system.switch_cpus0.iq.FU_type_0::SimdFloatAlu            0      0.00%     64.21% # Type of FU issued
system.switch_cpus0.iq.FU_type_0::SimdFloatCmp       376832      0.31%     64.52% # Type of FU issued
system.switch_cpus0.iq.FU_type_0::SimdFloatCvt      2048002      1.67%     66.19% # Type of FU issued
system.switch_cpus0.iq.FU_type_0::SimdFloatDiv      2276353      1.85%     68.04% # Type of FU issued
system.switch_cpus0.iq.FU_type_0::SimdFloatMisc            0      0.00%     68.04% # Type of FU issued
system.switch_cpus0.iq.FU_type_0::SimdFloatMult      9491769      7.73%     75.77% # Type of FU issued
system.switch_cpus0.iq.FU_type_0::SimdFloatMultAcc            0      0.00%     75.77% # Type of FU issued
system.switch_cpus0.iq.FU_type_0::SimdFloatSqrt       409602      0.33%     76.10% # Type of FU issued
system.switch_cpus0.iq.FU_type_0::SimdReduceAdd            0      0.00%     76.10% # Type of FU issued
system.switch_cpus0.iq.FU_type_0::SimdReduceAlu            0      0.00%     76.10% # Type of FU issued
system.switch_cpus0.iq.FU_type_0::SimdReduceCmp            0      0.00%     76.10% # Type of FU issued
system.switch_cpus0.iq.FU_type_0::SimdFloatReduceAdd            0      0.00%     76.10% # Type of FU issued
system.switch_cpus0.iq.FU_type_0::SimdFloatReduceCmp            0      0.00%     76.10% # Type of FU issued
system.switch_cpus0.iq.FU_type_0::SimdAes            0      0.00%     76.10% # Type of FU issued
system.switch_cpus0.iq.FU_type_0::SimdAesMix            0      0.00%     76.10% # Type of FU issued
system.switch_cpus0.iq.FU_type_0::SimdSha1Hash            0      0.00%     76.10% # Type of FU issued
system.switch_cpus0.iq.FU_type_0::SimdSha1Hash2            0      0.00%     76.10% # Type of FU issued
system.switch_cpus0.iq.FU_type_0::SimdSha256Hash            0      0.00%     76.10% # Type of FU issued
system.switch_cpus0.iq.FU_type_0::SimdSha256Hash2            0      0.00%     76.10% # Type of FU issued
system.switch_cpus0.iq.FU_type_0::SimdShaSigma2            0      0.00%     76.10% # Type of FU issued
system.switch_cpus0.iq.FU_type_0::SimdShaSigma3            0      0.00%     76.10% # Type of FU issued
system.switch_cpus0.iq.FU_type_0::SimdPredAlu            0      0.00%     76.10% # Type of FU issued
system.switch_cpus0.iq.FU_type_0::MemRead      7611773      6.20%     82.30% # Type of FU issued
system.switch_cpus0.iq.FU_type_0::MemWrite      2805828      2.28%     84.59% # Type of FU issued
system.switch_cpus0.iq.FU_type_0::FloatMemRead     13659142     11.12%     95.71% # Type of FU issued
system.switch_cpus0.iq.FU_type_0::FloatMemWrite      5268936      4.29%    100.00% # Type of FU issued
system.switch_cpus0.iq.FU_type_0::IprAccess            0      0.00%    100.00% # Type of FU issued
system.switch_cpus0.iq.FU_type_0::InstPrefetch            0      0.00%    100.00% # Type of FU issued
system.switch_cpus0.iq.FU_type_0::total     122801017                       # Type of FU issued
system.switch_cpus0.iq.fp_alu_accesses       59324402                       # Number of floating point alu accesses
system.switch_cpus0.iq.fp_inst_queue_reads    118211661                       # Number of floating instruction queue reads
system.switch_cpus0.iq.fp_inst_queue_wakeup_accesses     58869183                       # Number of floating instruction queue wakeup accesses
system.switch_cpus0.iq.fp_inst_queue_writes     59039247                       # Number of floating instruction queue writes
system.switch_cpus0.iq.fu_busy_cnt            1204209                       # FU busy when requested
system.switch_cpus0.iq.fu_busy_rate          0.009806                       # FU busy rate (busy events/executed inst)
system.switch_cpus0.iq.fu_full::No_OpClass            0      0.00%      0.00% # attempts to use FU when none available
system.switch_cpus0.iq.fu_full::IntAlu         551070     45.76%     45.76% # attempts to use FU when none available
system.switch_cpus0.iq.fu_full::IntMult             0      0.00%     45.76% # attempts to use FU when none available
system.switch_cpus0.iq.fu_full::IntDiv              0      0.00%     45.76% # attempts to use FU when none available
system.switch_cpus0.iq.fu_full::FloatAdd            0      0.00%     45.76% # attempts to use FU when none available
system.switch_cpus0.iq.fu_full::FloatCmp            0      0.00%     45.76% # attempts to use FU when none available
system.switch_cpus0.iq.fu_full::FloatCvt            0      0.00%     45.76% # attempts to use FU when none available
system.switch_cpus0.iq.fu_full::FloatMult            0      0.00%     45.76% # attempts to use FU when none available
system.switch_cpus0.iq.fu_full::FloatMultAcc            0      0.00%     45.76% # attempts to use FU when none available
system.switch_cpus0.iq.fu_full::FloatDiv            0      0.00%     45.76% # attempts to use FU when none available
system.switch_cpus0.iq.fu_full::FloatMisc            0      0.00%     45.76% # attempts to use FU when none available
system.switch_cpus0.iq.fu_full::FloatSqrt            0      0.00%     45.76% # attempts to use FU when none available
system.switch_cpus0.iq.fu_full::SimdAdd             0      0.00%     45.76% # attempts to use FU when none available
system.switch_cpus0.iq.fu_full::SimdAddAcc            0      0.00%     45.76% # attempts to use FU when none available
system.switch_cpus0.iq.fu_full::SimdAlu         29452      2.45%     48.21% # attempts to use FU when none available
system.switch_cpus0.iq.fu_full::SimdCmp             0      0.00%     48.21% # attempts to use FU when none available
system.switch_cpus0.iq.fu_full::SimdCvt             0      0.00%     48.21% # attempts to use FU when none available
system.switch_cpus0.iq.fu_full::SimdMisc            0      0.00%     48.21% # attempts to use FU when none available
system.switch_cpus0.iq.fu_full::SimdMult            0      0.00%     48.21% # attempts to use FU when none available
system.switch_cpus0.iq.fu_full::SimdMultAcc            0      0.00%     48.21% # attempts to use FU when none available
system.switch_cpus0.iq.fu_full::SimdShift            0      0.00%     48.21% # attempts to use FU when none available
system.switch_cpus0.iq.fu_full::SimdShiftAcc            0      0.00%     48.21% # attempts to use FU when none available
system.switch_cpus0.iq.fu_full::SimdDiv             0      0.00%     48.21% # attempts to use FU when none available
system.switch_cpus0.iq.fu_full::SimdSqrt            0      0.00%     48.21% # attempts to use FU when none available
system.switch_cpus0.iq.fu_full::SimdFloatAdd        50546      4.20%     52.41% # attempts to use FU when none available
system.switch_cpus0.iq.fu_full::SimdFloatAlu            0      0.00%     52.41% # attempts to use FU when none available
system.switch_cpus0.iq.fu_full::SimdFloatCmp            0      0.00%     52.41% # attempts to use FU when none available
system.switch_cpus0.iq.fu_full::SimdFloatCvt            0      0.00%     52.41% # attempts to use FU when none available
system.switch_cpus0.iq.fu_full::SimdFloatDiv        18245      1.52%     53.92% # attempts to use FU when none available
system.switch_cpus0.iq.fu_full::SimdFloatMisc            0      0.00%     53.92% # attempts to use FU when none available
system.switch_cpus0.iq.fu_full::SimdFloatMult       105430      8.76%     62.68% # attempts to use FU when none available
system.switch_cpus0.iq.fu_full::SimdFloatMultAcc            0      0.00%     62.68% # attempts to use FU when none available
system.switch_cpus0.iq.fu_full::SimdFloatSqrt            0      0.00%     62.68% # attempts to use FU when none available
system.switch_cpus0.iq.fu_full::SimdReduceAdd            0      0.00%     62.68% # attempts to use FU when none available
system.switch_cpus0.iq.fu_full::SimdReduceAlu            0      0.00%     62.68% # attempts to use FU when none available
system.switch_cpus0.iq.fu_full::SimdReduceCmp            0      0.00%     62.68% # attempts to use FU when none available
system.switch_cpus0.iq.fu_full::SimdFloatReduceAdd            0      0.00%     62.68% # attempts to use FU when none available
system.switch_cpus0.iq.fu_full::SimdFloatReduceCmp            0      0.00%     62.68% # attempts to use FU when none available
system.switch_cpus0.iq.fu_full::SimdAes             0      0.00%     62.68% # attempts to use FU when none available
system.switch_cpus0.iq.fu_full::SimdAesMix            0      0.00%     62.68% # attempts to use FU when none available
system.switch_cpus0.iq.fu_full::SimdSha1Hash            0      0.00%     62.68% # attempts to use FU when none available
system.switch_cpus0.iq.fu_full::SimdSha1Hash2            0      0.00%     62.68% # attempts to use FU when none available
system.switch_cpus0.iq.fu_full::SimdSha256Hash            0      0.00%     62.68% # attempts to use FU when none available
system.switch_cpus0.iq.fu_full::SimdSha256Hash2            0      0.00%     62.68% # attempts to use FU when none available
system.switch_cpus0.iq.fu_full::SimdShaSigma2            0      0.00%     62.68% # attempts to use FU when none available
system.switch_cpus0.iq.fu_full::SimdShaSigma3            0      0.00%     62.68% # attempts to use FU when none available
system.switch_cpus0.iq.fu_full::SimdPredAlu            0      0.00%     62.68% # attempts to use FU when none available
system.switch_cpus0.iq.fu_full::MemRead        215857     17.93%     80.60% # attempts to use FU when none available
system.switch_cpus0.iq.fu_full::MemWrite         4168      0.35%     80.95% # attempts to use FU when none available
system.switch_cpus0.iq.fu_full::FloatMemRead       228589     18.98%     99.93% # attempts to use FU when none available
system.switch_cpus0.iq.fu_full::FloatMemWrite          852      0.07%    100.00% # attempts to use FU when none available
system.switch_cpus0.iq.fu_full::IprAccess            0      0.00%    100.00% # attempts to use FU when none available
system.switch_cpus0.iq.fu_full::InstPrefetch            0      0.00%    100.00% # attempts to use FU when none available
system.switch_cpus0.iq.int_alu_accesses      64674235                       # Number of integer alu accesses
system.switch_cpus0.iq.int_inst_queue_reads    215363578                       # Number of integer instruction queue reads
system.switch_cpus0.iq.int_inst_queue_wakeup_accesses     63890440                       # Number of integer instruction queue wakeup accesses
system.switch_cpus0.iq.int_inst_queue_writes     64063121                       # Number of integer instruction queue writes
system.switch_cpus0.iq.iqInstsAdded         122889593                       # Number of instructions added to the IQ (excludes non-spec)
system.switch_cpus0.iq.iqInstsIssued        122801017                       # Number of instructions issued
system.switch_cpus0.iq.iqNonSpecInstsAdded            9                       # Number of non-speculative instructions added to the IQ
system.switch_cpus0.iq.iqSquashedInstsExamined       212230                       # Number of squashed instructions iterated over during squash; mainly for profiling
system.switch_cpus0.iq.iqSquashedInstsIssued         2895                       # Number of squashed instructions issued
system.switch_cpus0.iq.iqSquashedNonSpecRemoved            9                       # Number of squashed non-spec instructions that were removed
system.switch_cpus0.iq.iqSquashedOperandsExamined       376168                       # Number of squashed operands that are examined and possibly removed from graph
system.switch_cpus0.iq.issued_per_cycle::samples     86766101                       # Number of insts issued each cycle
system.switch_cpus0.iq.issued_per_cycle::mean     1.415311                       # Number of insts issued each cycle
system.switch_cpus0.iq.issued_per_cycle::stdev     2.528679                       # Number of insts issued each cycle
system.switch_cpus0.iq.issued_per_cycle::underflows            0      0.00%      0.00% # Number of insts issued each cycle
system.switch_cpus0.iq.issued_per_cycle::0     61394279     70.76%     70.76% # Number of insts issued each cycle
system.switch_cpus0.iq.issued_per_cycle::1      2696203      3.11%     73.87% # Number of insts issued each cycle
system.switch_cpus0.iq.issued_per_cycle::2      2571918      2.96%     76.83% # Number of insts issued each cycle
system.switch_cpus0.iq.issued_per_cycle::3      2560530      2.95%     79.78% # Number of insts issued each cycle
system.switch_cpus0.iq.issued_per_cycle::4      3244784      3.74%     83.52% # Number of insts issued each cycle
system.switch_cpus0.iq.issued_per_cycle::5      3404019      3.92%     87.44% # Number of insts issued each cycle
system.switch_cpus0.iq.issued_per_cycle::6      3219760      3.71%     91.15% # Number of insts issued each cycle
system.switch_cpus0.iq.issued_per_cycle::7      3435267      3.96%     95.11% # Number of insts issued each cycle
system.switch_cpus0.iq.issued_per_cycle::8      4239341      4.89%    100.00% # Number of insts issued each cycle
system.switch_cpus0.iq.issued_per_cycle::overflows            0      0.00%    100.00% # Number of insts issued each cycle
system.switch_cpus0.iq.issued_per_cycle::min_value            0                       # Number of insts issued each cycle
system.switch_cpus0.iq.issued_per_cycle::max_value            8                       # Number of insts issued each cycle
system.switch_cpus0.iq.issued_per_cycle::total     86766101                       # Number of insts issued each cycle
system.switch_cpus0.iq.rate                  1.414492                       # Inst issue rate
system.switch_cpus0.iq.vec_alu_accesses             0                       # Number of vector alu accesses
system.switch_cpus0.iq.vec_inst_queue_reads            0                       # Number of vector instruction queue reads
system.switch_cpus0.iq.vec_inst_queue_wakeup_accesses            0                       # Number of vector instruction queue wakeup accesses
system.switch_cpus0.iq.vec_inst_queue_writes            0                       # Number of vector instruction queue writes
system.switch_cpus0.memDep0.conflictingLoads       718065                       # Number of conflicting loads.
system.switch_cpus0.memDep0.conflictingStores       679776                       # Number of conflicting stores.
system.switch_cpus0.memDep0.insertedLoads     21278631                       # Number of loads inserted to the mem dependence unit.
system.switch_cpus0.memDep0.insertedStores      8087702                       # Number of stores inserted to the mem dependence unit.
system.switch_cpus0.misc_regfile_reads       49831953                       # number of misc regfile reads
system.switch_cpus0.misc_regfile_writes             1                       # number of misc regfile writes
system.switch_cpus0.numCycles                86816318                       # number of cpu cycles simulated
system.switch_cpus0.numWorkItemsCompleted            0                       # number of work items this cpu completed
system.switch_cpus0.numWorkItemsStarted             0                       # number of work items this cpu started
system.switch_cpus0.timesIdled                    227                       # Number of times that the entire CPU went into an idle state and unscheduled itself
system.switch_cpus1.cc_regfile_reads         82879556                       # number of cc regfile reads
system.switch_cpus1.cc_regfile_writes        33986764                       # number of cc regfile writes
system.switch_cpus1.committedInsts           54501262                       # Number of Instructions Simulated
system.switch_cpus1.committedOps             93859446                       # Number of Ops (including micro ops) Simulated
system.switch_cpus1.cpi                      1.592923                       # CPI: Cycles Per Instruction
system.switch_cpus1.cpi_total                1.592923                       # CPI: Total CPI of All Threads
system.switch_cpus1.fp_regfile_writes              56                       # number of floating regfile writes
system.switch_cpus1.idleCycles                  11875                       # Total number of cycles that the CPU has spent unscheduled due to idling
system.switch_cpus1.iew.branchMispredicts      1296190                       # Number of branch mispredicts detected at execute
system.switch_cpus1.iew.exec_branches        21792494                       # Number of branches executed
system.switch_cpus1.iew.exec_nop                    0                       # number of nop insts executed
system.switch_cpus1.iew.exec_rate            1.732435                       # Inst execution rate
system.switch_cpus1.iew.exec_refs            37408607                       # number of memory reference insts executed
system.switch_cpus1.iew.exec_stores           7768672                       # Number of stores executed
system.switch_cpus1.iew.exec_swp                    0                       # number of swp insts executed
system.switch_cpus1.iew.iewBlockCycles       35942824                       # Number of cycles IEW is blocking
system.switch_cpus1.iew.iewDispLoadInsts     34321250                       # Number of dispatched load instructions
system.switch_cpus1.iew.iewDispNonSpecInsts            0                       # Number of dispatched non-speculative instructions
system.switch_cpus1.iew.iewDispSquashedInsts        46785                       # Number of squashed instructions skipped by dispatch
system.switch_cpus1.iew.iewDispStoreInsts      8951002                       # Number of dispatched store instructions
system.switch_cpus1.iew.iewDispatchedInsts    172273516                       # Number of instructions dispatched to IQ
system.switch_cpus1.iew.iewExecLoadInsts     29639935                       # Number of load instructions executed
system.switch_cpus1.iew.iewExecSquashedInsts      3872953                       # Number of squashed instructions skipped in execute
system.switch_cpus1.iew.iewExecutedInsts    150403639                       # Number of executed instructions
system.switch_cpus1.iew.iewIQFullEvents        168641                       # Number of times the IQ has become full, causing a stall
system.switch_cpus1.iew.iewIdleCycles               0                       # Number of cycles IEW is idle
system.switch_cpus1.iew.iewLSQFullEvents      3330322                       # Number of times the LSQ has become full, causing a stall
system.switch_cpus1.iew.iewSquashCycles       1255740                       # Number of cycles IEW is squashing
system.switch_cpus1.iew.iewUnblockCycles      3637081                       # Number of cycles IEW is unblocking
system.switch_cpus1.iew.memOrderViolationEvents         5822                       # Number of memory order violations
system.switch_cpus1.iew.predictedNotTakenIncorrect       713270                       # Number of branches that were predicted not taken incorrectly
system.switch_cpus1.iew.predictedTakenIncorrect       582920                       # Number of branches that were predicted taken incorrectly
system.switch_cpus1.iew.wb_consumers        157450246                       # num instructions consuming a value
system.switch_cpus1.iew.wb_count            148518952                       # cumulative count of insts written-back
system.switch_cpus1.iew.wb_fanout            0.654864                       # average fanout of values written-back
system.switch_cpus1.iew.wb_producers        103108563                       # num instructions producing a value
system.switch_cpus1.iew.wb_rate              1.710726                       # insts written-back per cycle
system.switch_cpus1.iew.wb_sent             149533105                       # cumulative count of insts sent to commit
system.switch_cpus1.int_regfile_reads       215496211                       # number of integer regfile reads
system.switch_cpus1.int_regfile_writes      120849909                       # number of integer regfile writes
system.switch_cpus1.ipc                      0.627777                       # IPC: Instructions Per Cycle
system.switch_cpus1.ipc_total                0.627777                       # IPC: Total IPC of All Threads
system.switch_cpus1.iq.FU_type_0::No_OpClass        64626      0.04%      0.04% # Type of FU issued
system.switch_cpus1.iq.FU_type_0::IntAlu    114613959     74.29%     74.33% # Type of FU issued
system.switch_cpus1.iq.FU_type_0::IntMult       157966      0.10%     74.44% # Type of FU issued
system.switch_cpus1.iq.FU_type_0::IntDiv       400547      0.26%     74.70% # Type of FU issued
system.switch_cpus1.iq.FU_type_0::FloatAdd            0      0.00%     74.70% # Type of FU issued
system.switch_cpus1.iq.FU_type_0::FloatCmp            0      0.00%     74.70% # Type of FU issued
system.switch_cpus1.iq.FU_type_0::FloatCvt            0      0.00%     74.70% # Type of FU issued
system.switch_cpus1.iq.FU_type_0::FloatMult            0      0.00%     74.70% # Type of FU issued
system.switch_cpus1.iq.FU_type_0::FloatMultAcc            0      0.00%     74.70% # Type of FU issued
system.switch_cpus1.iq.FU_type_0::FloatDiv            0      0.00%     74.70% # Type of FU issued
system.switch_cpus1.iq.FU_type_0::FloatMisc            0      0.00%     74.70% # Type of FU issued
system.switch_cpus1.iq.FU_type_0::FloatSqrt            0      0.00%     74.70% # Type of FU issued
system.switch_cpus1.iq.FU_type_0::SimdAdd            0      0.00%     74.70% # Type of FU issued
system.switch_cpus1.iq.FU_type_0::SimdAddAcc            0      0.00%     74.70% # Type of FU issued
system.switch_cpus1.iq.FU_type_0::SimdAlu            0      0.00%     74.70% # Type of FU issued
system.switch_cpus1.iq.FU_type_0::SimdCmp            0      0.00%     74.70% # Type of FU issued
system.switch_cpus1.iq.FU_type_0::SimdCvt            0      0.00%     74.70% # Type of FU issued
system.switch_cpus1.iq.FU_type_0::SimdMisc            0      0.00%     74.70% # Type of FU issued
system.switch_cpus1.iq.FU_type_0::SimdMult            0      0.00%     74.70% # Type of FU issued
system.switch_cpus1.iq.FU_type_0::SimdMultAcc            0      0.00%     74.70% # Type of FU issued
system.switch_cpus1.iq.FU_type_0::SimdShift            0      0.00%     74.70% # Type of FU issued
system.switch_cpus1.iq.FU_type_0::SimdShiftAcc            0      0.00%     74.70% # Type of FU issued
system.switch_cpus1.iq.FU_type_0::SimdDiv            0      0.00%     74.70% # Type of FU issued
system.switch_cpus1.iq.FU_type_0::SimdSqrt            0      0.00%     74.70% # Type of FU issued
system.switch_cpus1.iq.FU_type_0::SimdFloatAdd            0      0.00%     74.70% # Type of FU issued
system.switch_cpus1.iq.FU_type_0::SimdFloatAlu            0      0.00%     74.70% # Type of FU issued
system.switch_cpus1.iq.FU_type_0::SimdFloatCmp            0      0.00%     74.70% # Type of FU issued
system.switch_cpus1.iq.FU_type_0::SimdFloatCvt            0      0.00%     74.70% # Type of FU issued
system.switch_cpus1.iq.FU_type_0::SimdFloatDiv            0      0.00%     74.70% # Type of FU issued
system.switch_cpus1.iq.FU_type_0::SimdFloatMisc            0      0.00%     74.70% # Type of FU issued
system.switch_cpus1.iq.FU_type_0::SimdFloatMult            0      0.00%     74.70% # Type of FU issued
system.switch_cpus1.iq.FU_type_0::SimdFloatMultAcc            0      0.00%     74.70% # Type of FU issued
system.switch_cpus1.iq.FU_type_0::SimdFloatSqrt            0      0.00%     74.70% # Type of FU issued
system.switch_cpus1.iq.FU_type_0::SimdReduceAdd            0      0.00%     74.70% # Type of FU issued
system.switch_cpus1.iq.FU_type_0::SimdReduceAlu            0      0.00%     74.70% # Type of FU issued
system.switch_cpus1.iq.FU_type_0::SimdReduceCmp            0      0.00%     74.70% # Type of FU issued
system.switch_cpus1.iq.FU_type_0::SimdFloatReduceAdd            0      0.00%     74.70% # Type of FU issued
system.switch_cpus1.iq.FU_type_0::SimdFloatReduceCmp            0      0.00%     74.70% # Type of FU issued
system.switch_cpus1.iq.FU_type_0::SimdAes            0      0.00%     74.70% # Type of FU issued
[...]
system.switch_cpus3.commit.numCommittedDist::stdev     3.369829                       # Number of insts commited each cycle
system.switch_cpus3.commit.numCommittedDist::underflows            0      0.00%      0.00% # Number of insts commited each cycle
system.switch_cpus3.commit.numCommittedDist::0     22685700     27.13%     27.13% # Number of insts commited each cycle
system.switch_cpus3.commit.numCommittedDist::1      9976806     11.93%     39.06% # Number of insts commited each cycle
system.switch_cpus3.commit.numCommittedDist::2      3867036      4.62%     43.68% # Number of insts commited each cycle
system.switch_cpus3.commit.numCommittedDist::3      6864480      8.21%     51.89% # Number of insts commited each cycle
system.switch_cpus3.commit.numCommittedDist::4      6874043      8.22%     60.11% # Number of insts commited each cycle
system.switch_cpus3.commit.numCommittedDist::5      1661946      1.99%     62.09% # Number of insts commited each cycle
system.switch_cpus3.commit.numCommittedDist::6      2048274      2.45%     64.54% # Number of insts commited each cycle
system.switch_cpus3.commit.numCommittedDist::7      1137702      1.36%     65.90% # Number of insts commited each cycle
system.switch_cpus3.commit.numCommittedDist::8     28514346     34.10%    100.00% # Number of insts commited each cycle
system.switch_cpus3.commit.numCommittedDist::overflows            0      0.00%    100.00% # Number of insts commited each cycle
system.switch_cpus3.commit.numCommittedDist::min_value            0                       # Number of insts commited each cycle
system.switch_cpus3.commit.numCommittedDist::max_value            8                       # Number of insts commited each cycle
system.switch_cpus3.commit.numCommittedDist::total     83630333                       # Number of insts commited each cycle
system.switch_cpus3.commit.instsCommitted    177725966                       # Number of instructions committed
system.switch_cpus3.commit.opsCommitted     322478546                       # Number of ops (including micro ops) committed
system.switch_cpus3.commit.memRefs           62550952                       # Number of memory references committed
system.switch_cpus3.commit.loads             44266985                       # Number of loads committed
system.switch_cpus3.commit.amos                     0                       # Number of atomic instructions committed
system.switch_cpus3.commit.membars                  0                       # Number of memory barriers committed
system.switch_cpus3.commit.branches          30801393                       # Number of branches committed
system.switch_cpus3.commit.vector                   0                       # Number of committed Vector instructions.
system.switch_cpus3.commit.floating         103053889                       # Number of committed floating point instructions.
system.switch_cpus3.commit.integer          246877820                       # Number of committed integer instructions.
system.switch_cpus3.commit.functionCalls      2444246                       # Number of function calls committed.
system.switch_cpus3.commit.committedInstType_0::No_OpClass        39686      0.01%      0.01% # Class of committed instruction
system.switch_cpus3.commit.committedInstType_0::IntAlu    199915395     61.99%     62.01% # Class of committed instruction
system.switch_cpus3.commit.committedInstType_0::IntMult            0      0.00%     62.01% # Class of committed instruction
system.switch_cpus3.commit.committedInstType_0::IntDiv            0      0.00%     62.01% # Class of committed instruction
system.switch_cpus3.commit.committedInstType_0::FloatAdd     24990981      7.75%     69.76% # Class of committed instruction
system.switch_cpus3.commit.committedInstType_0::FloatCmp            0      0.00%     69.76% # Class of committed instruction
system.switch_cpus3.commit.committedInstType_0::FloatCvt            0      0.00%     69.76% # Class of committed instruction
system.switch_cpus3.commit.committedInstType_0::FloatMult            0      0.00%     69.76% # Class of committed instruction
system.switch_cpus3.commit.committedInstType_0::FloatMultAcc            0      0.00%     69.76% # Class of committed instruction
system.switch_cpus3.commit.committedInstType_0::FloatDiv            0      0.00%     69.76% # Class of committed instruction
system.switch_cpus3.commit.committedInstType_0::FloatMisc            0      0.00%     69.76% # Class of committed instruction
system.switch_cpus3.commit.committedInstType_0::FloatSqrt            0      0.00%     69.76% # Class of committed instruction
system.switch_cpus3.commit.committedInstType_0::SimdAdd            0      0.00%     69.76% # Class of committed instruction
system.switch_cpus3.commit.committedInstType_0::SimdAddAcc            0      0.00%     69.76% # Class of committed instruction
system.switch_cpus3.commit.committedInstType_0::SimdAlu      4018088      1.25%     71.00% # Class of committed instruction
system.switch_cpus3.commit.committedInstType_0::SimdCmp            0      0.00%     71.00% # Class of committed instruction
system.switch_cpus3.commit.committedInstType_0::SimdCvt            0      0.00%     71.00% # Class of committed instruction
system.switch_cpus3.commit.committedInstType_0::SimdMisc      1293755      0.40%     71.40% # Class of committed instruction
system.switch_cpus3.commit.committedInstType_0::SimdMult            0      0.00%     71.40% # Class of committed instruction
system.switch_cpus3.commit.committedInstType_0::SimdMultAcc            0      0.00%     71.40% # Class of committed instruction
system.switch_cpus3.commit.committedInstType_0::SimdShift            0      0.00%     71.40% # Class of committed instruction
system.switch_cpus3.commit.committedInstType_0::SimdShiftAcc            0      0.00%     71.40% # Class of committed instruction
system.switch_cpus3.commit.committedInstType_0::SimdDiv            0      0.00%     71.40% # Class of committed instruction
system.switch_cpus3.commit.committedInstType_0::SimdSqrt            0      0.00%     71.40% # Class of committed instruction
system.switch_cpus3.commit.committedInstType_0::SimdFloatAdd     10112492      3.14%     74.54% # Class of committed instruction
system.switch_cpus3.commit.committedInstType_0::SimdFloatAlu            0      0.00%     74.54% # Class of committed instruction
system.switch_cpus3.commit.committedInstType_0::SimdFloatCmp          130      0.00%     74.54% # Class of committed instruction
system.switch_cpus3.commit.committedInstType_0::SimdFloatCvt     12336534      3.83%     78.36% # Class of committed instruction
system.switch_cpus3.commit.committedInstType_0::SimdFloatDiv      1084190      0.34%     78.70% # Class of committed instruction
system.switch_cpus3.commit.committedInstType_0::SimdFloatMisc            0      0.00%     78.70% # Class of committed instruction
system.switch_cpus3.commit.committedInstType_0::SimdFloatMult      5919505      1.84%     80.54% # Class of committed instruction
system.switch_cpus3.commit.committedInstType_0::SimdFloatMultAcc            0      0.00%     80.54% # Class of committed instruction
system.switch_cpus3.commit.committedInstType_0::SimdFloatSqrt       216838      0.07%     80.60% # Class of committed instruction
system.switch_cpus3.commit.committedInstType_0::SimdReduceAdd            0      0.00%     80.60% # Class of committed instruction
system.switch_cpus3.commit.committedInstType_0::SimdReduceAlu            0      0.00%     80.60% # Class of committed instruction
system.switch_cpus3.commit.committedInstType_0::SimdReduceCmp            0      0.00%     80.60% # Class of committed instruction
system.switch_cpus3.commit.committedInstType_0::SimdFloatReduceAdd            0      0.00%     80.60% # Class of committed instruction
system.switch_cpus3.commit.committedInstType_0::SimdFloatReduceCmp            0      0.00%     80.60% # Class of committed instruction
system.switch_cpus3.commit.committedInstType_0::SimdAes            0      0.00%     80.60% # Class of committed instruction
system.switch_cpus3.commit.committedInstType_0::SimdAesMix            0      0.00%     80.60% # Class of committed instruction
system.switch_cpus3.commit.committedInstType_0::SimdSha1Hash            0      0.00%     80.60% # Class of committed instruction
system.switch_cpus3.commit.committedInstType_0::SimdSha1Hash2            0      0.00%     80.60% # Class of committed instruction
system.switch_cpus3.commit.committedInstType_0::SimdSha256Hash            0      0.00%     80.60% # Class of committed instruction
system.switch_cpus3.commit.committedInstType_0::SimdSha256Hash2            0      0.00%     80.60% # Class of committed instruction
system.switch_cpus3.commit.committedInstType_0::SimdShaSigma2            0      0.00%     80.60% # Class of committed instruction
system.switch_cpus3.commit.committedInstType_0::SimdShaSigma3            0      0.00%     80.60% # Class of committed instruction
system.switch_cpus3.commit.committedInstType_0::SimdPredAlu            0      0.00%     80.60% # Class of committed instruction
system.switch_cpus3.commit.committedInstType_0::MemRead     24128851      7.48%     88.09% # Class of committed instruction
system.switch_cpus3.commit.committedInstType_0::MemWrite     12223007      3.79%     91.88% # Class of committed instruction
system.switch_cpus3.commit.committedInstType_0::FloatMemRead     20138134      6.24%     98.12% # Class of committed instruction
system.switch_cpus3.commit.committedInstType_0::FloatMemWrite      6060960      1.88%    100.00% # Class of committed instruction
system.switch_cpus3.commit.committedInstType_0::IprAccess            0      0.00%    100.00% # Class of committed instruction
system.switch_cpus3.commit.committedInstType_0::InstPrefetch            0      0.00%    100.00% # Class of committed instruction
system.switch_cpus3.commit.committedInstType_0::total    322478546                       # Class of committed instruction
system.switch_cpus3.commit.commitEligibleSamples     28514346                       # number cycles where commit BW limit reached
system.switch_cpus3.decode.idleCycles         5043424                       # Number of cycles decode is idle
system.switch_cpus3.decode.blockedCycles     25967207                       # Number of cycles decode is blocked
system.switch_cpus3.decode.runCycles         50381129                       # Number of cycles decode is running
system.switch_cpus3.decode.unblockCycles      4854878                       # Number of cycles decode is unblocking
system.switch_cpus3.decode.squashCycles        501501                       # Number of cycles decode is squashing
system.switch_cpus3.decode.branchResolved     17982982                       # Number of times decode resolved a  branch
system.switch_cpus3.decode.branchMispred          289                       # Number of times decode detected a branch misprediction
system.switch_cpus3.decode.decodedInsts     354151755                       # Number of instructions handled by decode
system.switch_cpus3.decode.squashedInsts          447                       # Number of squashed instructions handled by decode
system.switch_cpus3.dtb.rdAccesses           45524712                       # TLB accesses on read requests
system.switch_cpus3.dtb.wrAccesses           18461090                       # TLB accesses on write requests
system.switch_cpus3.dtb.rdMisses                28546                       # TLB misses on read requests
system.switch_cpus3.dtb.wrMisses                  274                       # TLB misses on write requests
system.switch_cpus3.dtb.walker.power_state.pwrStateResidencyTicks::UNDEFINED 15680166963174                       # Cumulative time (in ticks) in various power states
system.switch_cpus3.fetch.icacheStallCycles       402019                       # Number of cycles fetch is stalled on an Icache miss
system.switch_cpus3.fetch.insts             198747004                       # Number of instructions fetch has processed
system.switch_cpus3.fetch.branches           35509268                       # Number of branches that fetch encountered
system.switch_cpus3.fetch.predictedBranches     22410231                       # Number of branches that fetch has predicted taken
system.switch_cpus3.fetch.cycles             85844334                       # Number of cycles fetch has run and was not squashing or blocked
system.switch_cpus3.fetch.squashCycles        1003576                       # Number of cycles fetch has spent squashing
system.switch_cpus3.fetch.cacheLines         29772179                       # Number of cache lines fetched
system.switch_cpus3.fetch.icacheSquashes          191                       # Number of outstanding Icache misses that were squashed
system.switch_cpus3.fetch.nisnDist::samples     86748141                       # Number of instructions fetched each cycle (Total)
system.switch_cpus3.fetch.nisnDist::mean     4.137733                       # Number of instructions fetched each cycle (Total)
system.switch_cpus3.fetch.nisnDist::stdev     3.384095                       # Number of instructions fetched each cycle (Total)
system.switch_cpus3.fetch.nisnDist::underflows            0      0.00%      0.00% # Number of instructions fetched each cycle (Total)
system.switch_cpus3.fetch.nisnDist::0        24999773     28.82%     28.82% # Number of instructions fetched each cycle (Total)
system.switch_cpus3.fetch.nisnDist::1         4185283      4.82%     33.64% # Number of instructions fetched each cycle (Total)
system.switch_cpus3.fetch.nisnDist::2         5060601      5.83%     39.48% # Number of instructions fetched each cycle (Total)
system.switch_cpus3.fetch.nisnDist::3         5941178      6.85%     46.33% # Number of instructions fetched each cycle (Total)
system.switch_cpus3.fetch.nisnDist::4         6505584      7.50%     53.83% # Number of instructions fetched each cycle (Total)
system.switch_cpus3.fetch.nisnDist::5         3702413      4.27%     58.09% # Number of instructions fetched each cycle (Total)
system.switch_cpus3.fetch.nisnDist::6         2871197      3.31%     61.40% # Number of instructions fetched each cycle (Total)
system.switch_cpus3.fetch.nisnDist::7         2807809      3.24%     64.64% # Number of instructions fetched each cycle (Total)
system.switch_cpus3.fetch.nisnDist::8        30674303     35.36%    100.00% # Number of instructions fetched each cycle (Total)
system.switch_cpus3.fetch.nisnDist::overflows            0      0.00%    100.00% # Number of instructions fetched each cycle (Total)
system.switch_cpus3.fetch.nisnDist::min_value            0                       # Number of instructions fetched each cycle (Total)
system.switch_cpus3.fetch.nisnDist::max_value            8                       # Number of instructions fetched each cycle (Total)
system.switch_cpus3.fetch.nisnDist::total     86748141                       # Number of instructions fetched each cycle (Total)
system.switch_cpus3.fetch.branchRate         0.409016                       # Number of branch fetches per cycle
system.switch_cpus3.fetch.rate               2.289282                       # Number of inst fetches per cycle
system.switch_cpus3.itb.rdAccesses                  0                       # TLB accesses on read requests
system.switch_cpus3.itb.wrAccesses           29772179                       # TLB accesses on write requests
system.switch_cpus3.itb.rdMisses                    0                       # TLB misses on read requests
system.switch_cpus3.itb.wrMisses                   25                       # TLB misses on write requests
system.switch_cpus3.itb.walker.power_state.pwrStateResidencyTicks::UNDEFINED 15680166963174                       # Cumulative time (in ticks) in various power states
system.switch_cpus3.lsq0.forwLoads            9835428                       # Number of loads that had data forwarded from stores
system.switch_cpus3.lsq0.squashedLoads        2310881                       # Number of loads squashed
system.switch_cpus3.lsq0.ignoredResponses           16                       # Number of memory responses ignored because the instruction is squashed
system.switch_cpus3.lsq0.memOrderViolation         5534                       # Number of memory ordering violations
system.switch_cpus3.lsq0.squashedStores        991460                       # Number of stores squashed
system.switch_cpus3.lsq0.rescheduledLoads          998                       # Number of loads that were rescheduled
system.switch_cpus3.lsq0.blockedByCache             1                       # Number of times an access to memory failed due to the cache being blocked
system.switch_cpus3.power_state.pwrStateResidencyTicks::OFF  28909844550                       # Cumulative time (in ticks) in various power states
system.switch_cpus3.rename.squashCycles        501501                       # Number of cycles rename is squashing
system.switch_cpus3.rename.idleCycles         7071054                       # Number of cycles rename is idle
system.switch_cpus3.rename.blockCycles       11473513                       # Number of cycles rename is blocking
system.switch_cpus3.rename.serializeStallCycles          154                       # count of cycles rename stalledfor serializing inst
system.switch_cpus3.rename.runCycles         53064215                       # Number of cycles rename is running
system.switch_cpus3.rename.unblockCycles     14637702                       # Number of cycles rename is unblocking
system.switch_cpus3.rename.renamedInsts     351339583                       # Number of instructions processed by rename
system.switch_cpus3.rename.ROBFullEvents        66440                       # Number of times rename has blocked due to ROB full
system.switch_cpus3.rename.IQFullEvents       4618724                       # Number of times rename has blocked due to IQ full
system.switch_cpus3.rename.LQFullEvents       8750320                       # Number of times rename has blocked due to LQ full
system.switch_cpus3.rename.SQFullEvents         82869                       # Number of times rename has blocked due to SQ full
system.switch_cpus3.rename.renamedOperands    385852034                       # Number of destination operands rename has renamed
system.switch_cpus3.rename.lookups          874857140                       # Number of register rename lookups that rename has made
system.switch_cpus3.rename.intLookups       389270382                       # Number of integer rename lookups
system.switch_cpus3.rename.fpLookups        132123365                       # Number of floating rename lookups
system.switch_cpus3.rename.committedMaps    350379586                       # Number of HB maps that are committed
system.switch_cpus3.rename.undoneMaps        35472281                       # Number of HB maps that are undone due to squashing
system.switch_cpus3.rename.serializing             16                       # count of serializing insts renamed
system.switch_cpus3.rename.tempSerializing           16                       # count of temporary serializing insts renamed
system.switch_cpus3.rename.skidInsts         18759316                       # count of insts added to the skid buffer
system.switch_cpus3.rob.reads               400668361                       # The number of ROB reads
system.switch_cpus3.rob.writes              694230730                       # The number of ROB writes
system.switch_cpus3.thread0.numInsts        177725966                       # Number of Instructions committed
system.switch_cpus3.thread0.numOps          322478546                       # Number of Ops committed
system.switch_cpus3.thread0.numMemRefs              0                       # Number of Memory References
system.voltage_domain.voltage                       1                       # Voltage in Volts

---------- End Simulation Statistics   ----------
