
---------- Begin Simulation Statistics ----------
final_tick                               15680189916864                       # Number of ticks from beginning of simulation (restored from checkpoints and never reset)
host_inst_rate                                 126480                       # Simulator instruction rate (inst/s)
host_mem_usage                               17387808                       # Number of bytes of host memory used
host_op_rate                                   216642                       # Simulator op (including micro ops) rate (op/s)
host_seconds                                  4444.28                       # Real time elapsed on the host
host_tick_rate                                6510129                       # Simulator tick rate (ticks/s)
sim_freq                                 1000000000000                       # Frequency of simulated ticks
sim_insts                                   562110658                       # Number of instructions simulated
sim_ops                                     962815534                       # Number of ops (including micro ops) simulated
sim_seconds                                  0.028933                       # Number of seconds simulated
sim_ticks                                 28932839199                       # Number of ticks simulated
system.cpu0.Branches                                1                       # Number of branches fetched
system.cpu0.committedInsts                         14                       # Number of instructions committed
system.cpu0.committedOps                           23                       # Number of ops (including micro ops) committed
system.cpu0.idle_fraction                           0                       # Percentage of idle cycles
system.cpu0.l2bus.snoop_filter.hit_multi_requests            2                       # Number of requests hitting in the snoop filter with multiple (>1) holders of the requested data.
system.cpu0.l2bus.snoop_filter.hit_multi_snoops            0                       # Number of snoops hitting in the snoop filter with multiple (>1) holders of the requested data.
system.cpu0.l2bus.snoop_filter.hit_single_requests      1373648                       # Number of requests hitting in the snoop filter with a single holder of the requested data.
system.cpu0.l2bus.snoop_filter.hit_single_snoops         1484                       # Number of snoops hitting in the snoop filter with a single holder of the requested data.
system.cpu0.l2bus.snoop_filter.tot_requests      2694266                       # Total number of requests made to the snoop filter.
system.cpu0.l2bus.snoop_filter.tot_snoops         1484                       # Total number of snoops made to the snoop filter.
system.cpu0.mmucache.mmubus.snoop_filter.hit_multi_requests            0                       # Number of requests hitting in the snoop filter with multiple (>1) holders of the requested data.
system.cpu0.mmucache.mmubus.snoop_filter.hit_multi_snoops            0                       # Number of snoops hitting in the snoop filter with multiple (>1) holders of the requested data.
system.cpu0.mmucache.mmubus.snoop_filter.hit_single_requests            0                       # Number of requests hitting in the snoop filter with a single holder of the requested data.
system.cpu0.mmucache.mmubus.snoop_filter.hit_single_snoops            0                       # Number of snoops hitting in the snoop filter with a single holder of the requested data.
system.cpu0.mmucache.mmubus.snoop_filter.tot_requests            0                       # Total number of requests made to the snoop filter.
system.cpu0.mmucache.mmubus.snoop_filter.tot_snoops            0                       # Total number of snoops made to the snoop filter.
system.cpu0.not_idle_fraction                       1                       # Percentage of non-idle cycles
system.cpu0.numCycles                              30                       # number of cpu cycles simulated
system.cpu0.numWorkItemsCompleted                   0                       # number of work items this cpu completed
system.cpu0.numWorkItemsStarted                     0                       # number of work items this cpu started
system.cpu0.num_busy_cycles                        30                       # Number of busy cycles
system.cpu0.num_cc_register_reads                   5                       # number of times the CC registers were read
system.cpu0.num_cc_register_writes                  8                       # number of times the CC registers were written
system.cpu0.num_conditional_control_insts            1                       # number of instructions that are conditional controls
system.cpu0.num_fp_alu_accesses                    12                       # Number of float alu accesses
system.cpu0.num_fp_insts                           12                       # number of float instructions
system.cpu0.num_fp_register_reads                  21                       # number of times the floating registers were read
system.cpu0.num_fp_register_writes                 11                       # number of times the floating registers were written
system.cpu0.num_func_calls                          0                       # number of times a function call or return occured
system.cpu0.num_idle_cycles                         0                       # Number of idle cycles
system.cpu0.num_int_alu_accesses                   16                       # Number of integer alu accesses
system.cpu0.num_int_insts                          16                       # number of integer instructions
system.cpu0.num_int_register_reads                 33                       # number of times the integer registers were read
system.cpu0.num_int_register_writes                10                       # number of times the integer registers were written
system.cpu0.num_load_insts                          6                       # Number of load instructions
system.cpu0.num_mem_refs                            7                       # number of memory refs
system.cpu0.num_store_insts                         1                       # Number of store instructions
system.cpu0.num_vec_alu_accesses                    0                       # Number of vector alu accesses
system.cpu0.num_vec_insts                           0                       # number of vector instructions
system.cpu0.num_vec_register_reads                  0                       # number of times the vector registers were read
system.cpu0.num_vec_register_writes                 0                       # number of times the vector registers were written
system.cpu0.op_class::No_OpClass                    0      0.00%      0.00% # Class of executed instruction
system.cpu0.op_class::IntAlu                       10     43.48%     43.48% # Class of executed instruction
system.cpu0.op_class::IntMult                       0      0.00%     43.48% # Class of executed instruction
system.cpu0.op_class::IntDiv                        0      0.00%     43.48% # Class of executed instruction
system.cpu0.op_class::FloatAdd                      0      0.00%     43.48% # Class of executed instruction
system.cpu0.op_class::FloatCmp                      0      0.00%     43.48% # Class of executed instruction
system.cpu0.op_class::FloatCvt                      0      0.00%     43.48% # Class of executed instruction
system.cpu0.op_class::FloatMult                     0      0.00%     43.48% # Class of executed instruction
system.cpu0.op_class::FloatMultAcc                  0      0.00%     43.48% # Class of executed instruction
system.cpu0.op_class::FloatDiv                      0      0.00%     43.48% # Class of executed instruction
system.cpu0.op_class::FloatMisc                     0      0.00%     43.48% # Class of executed instruction
system.cpu0.op_class::FloatSqrt                     0      0.00%     43.48% # Class of executed instruction
system.cpu0.op_class::SimdAdd                       0      0.00%     43.48% # Class of executed instruction
system.cpu0.op_class::SimdAddAcc                    0      0.00%     43.48% # Class of executed instruction
system.cpu0.op_class::SimdAlu                       0      0.00%     43.48% # Class of executed instruction
system.cpu0.op_class::SimdCmp                       0      0.00%     43.48% # Class of executed instruction
system.cpu0.op_class::SimdCvt                       0      0.00%     43.48% # Class of executed instruction
system.cpu0.op_class::SimdMisc                      0      0.00%     43.48% # Class of executed instruction
system.cpu0.op_class::SimdMult                      0      0.00%     43.48% # Class of executed instruction
system.cpu0.op_class::SimdMultAcc                   0      0.00%     43.48% # Class of executed instruction
system.cpu0.op_class::SimdShift                     0      0.00%     43.48% # Class of executed instruction
system.cpu0.op_class::SimdShiftAcc                  0      0.00%     43.48% # Class of executed instruction
system.cpu0.op_class::SimdDiv                       0      0.00%     43.48% # Class of executed instruction
system.cpu0.op_class::SimdSqrt                      0      0.00%     43.48% # Class of executed instruction
system.cpu0.op_class::SimdFloatAdd                  4     17.39%     60.87% # Class of executed instruction
system.cpu0.op_class::SimdFloatAlu                  0      0.00%     60.87% # Class of executed instruction
system.cpu0.op_class::SimdFloatCmp                  0      0.00%     60.87% # Class of executed instruction
system.cpu0.op_class::SimdFloatCvt                  0      0.00%     60.87% # Class of executed instruction
system.cpu0.op_class::SimdFloatDiv                  0      0.00%     60.87% # Class of executed instruction
system.cpu0.op_class::SimdFloatMisc                 0      0.00%     60.87% # Class of executed instruction
system.cpu0.op_class::SimdFloatMult                 2      8.70%     69.57% # Class of executed instruction
system.cpu0.op_class::SimdFloatMultAcc              0      0.00%     69.57% # Class of executed instruction
system.cpu0.op_class::SimdFloatSqrt                 0      0.00%     69.57% # Class of executed instruction
system.cpu0.op_class::SimdReduceAdd                 0      0.00%     69.57% # Class of executed instruction
system.cpu0.op_class::SimdReduceAlu                 0      0.00%     69.57% # Class of executed instruction
system.cpu0.op_class::SimdReduceCmp                 0      0.00%     69.57% # Class of executed instruction
system.cpu0.op_class::SimdFloatReduceAdd            0      0.00%     69.57% # Class of executed instruction
system.cpu0.op_class::SimdFloatReduceCmp            0      0.00%     69.57% # Class of executed instruction
system.cpu0.op_class::SimdAes                       0      0.00%     69.57% # Class of executed instruction
system.cpu0.op_class::SimdAesMix                    0      0.00%     69.57% # Class of executed instruction
system.cpu0.op_class::SimdSha1Hash                  0      0.00%     69.57% # Class of executed instruction
system.cpu0.op_class::SimdSha1Hash2                 0      0.00%     69.57% # Class of executed instruction
system.cpu0.op_class::SimdSha256Hash                0      0.00%     69.57% # Class of executed instruction
system.cpu0.op_class::SimdSha256Hash2               0      0.00%     69.57% # Class of executed instruction
system.cpu0.op_class::SimdShaSigma2                 0      0.00%     69.57% # Class of executed instruction
system.cpu0.op_class::SimdShaSigma3                 0      0.00%     69.57% # Class of executed instruction
system.cpu0.op_class::SimdPredAlu                   0      0.00%     69.57% # Class of executed instruction
system.cpu0.op_class::MemRead                       2      8.70%     78.26% # Class of executed instruction
system.cpu0.op_class::MemWrite                      0      0.00%     78.26% # Class of executed instruction
system.cpu0.op_class::FloatMemRead                  4     17.39%     95.65% # Class of executed instruction
system.cpu0.op_class::FloatMemWrite                 1      4.35%    100.00% # Class of executed instruction
system.cpu0.op_class::IprAccess                     0      0.00%    100.00% # Class of executed instruction
system.cpu0.op_class::InstPrefetch                  0      0.00%    100.00% # Class of executed instruction
system.cpu0.op_class::total                        23                       # Class of executed instruction
system.cpu0.workload.numSyscalls                    0                       # Number of system calls
system.cpu1.Branches                                3                       # Number of branches fetched
system.cpu1.committedInsts                         15                       # Number of instructions committed
system.cpu1.committedOps                           25                       # Number of ops (including micro ops) committed
system.cpu1.idle_fraction                           0                       # Percentage of idle cycles
system.cpu1.l2bus.snoop_filter.hit_multi_requests           49                       # Number of requests hitting in the snoop filter with multiple (>1) holders of the requested data.
system.cpu1.l2bus.snoop_filter.hit_multi_snoops            1                       # Number of snoops hitting in the snoop filter with multiple (>1) holders of the requested data.
system.cpu1.l2bus.snoop_filter.hit_single_requests      1863139                       # Number of requests hitting in the snoop filter with a single holder of the requested data.
system.cpu1.l2bus.snoop_filter.hit_single_snoops          238                       # Number of snoops hitting in the snoop filter with a single holder of the requested data.
system.cpu1.l2bus.snoop_filter.tot_requests      3713546                       # Total number of requests made to the snoop filter.
system.cpu1.l2bus.snoop_filter.tot_snoops          239                       # Total number of snoops made to the snoop filter.
system.cpu1.mmucache.mmubus.snoop_filter.hit_multi_requests            0                       # Number of requests hitting in the snoop filter with multiple (>1) holders of the requested data.
system.cpu1.mmucache.mmubus.snoop_filter.hit_multi_snoops            0                       # Number of snoops hitting in the snoop filter with multiple (>1) holders of the requested data.
system.cpu1.mmucache.mmubus.snoop_filter.hit_single_requests            0                       # Number of requests hitting in the snoop filter with a single holder of the requested data.
system.cpu1.mmucache.mmubus.snoop_filter.hit_single_snoops            0                       # Number of snoops hitting in the snoop filter with a single holder of the requested data.
system.cpu1.mmucache.mmubus.snoop_filter.tot_requests            0                       # Total number of requests made to the snoop filter.
system.cpu1.mmucache.mmubus.snoop_filter.tot_snoops            0                       # Total number of snoops made to the snoop filter.
system.cpu1.not_idle_fraction                       1                       # Percentage of non-idle cycles
system.cpu1.numCycles                              31                       # number of cpu cycles simulated
system.cpu1.numWorkItemsCompleted                   0                       # number of work items this cpu completed
system.cpu1.numWorkItemsStarted                     0                       # number of work items this cpu started
system.cpu1.num_busy_cycles                        31                       # Number of busy cycles
system.cpu1.num_cc_register_reads                  20                       # number of times the CC registers were read
system.cpu1.num_cc_register_writes                  6                       # number of times the CC registers were written
system.cpu1.num_conditional_control_insts            2                       # number of instructions that are conditional controls
system.cpu1.num_fp_alu_accesses                     0                       # Number of float alu accesses
system.cpu1.num_fp_insts                            0                       # number of float instructions
system.cpu1.num_fp_register_reads                   0                       # number of times the floating registers were read
system.cpu1.num_fp_register_writes                  0                       # number of times the floating registers were written
system.cpu1.num_func_calls                          1                       # number of times a function call or return occured
system.cpu1.num_idle_cycles                         0                       # Number of idle cycles
system.cpu1.num_int_alu_accesses                   25                       # Number of integer alu accesses
system.cpu1.num_int_insts                          25                       # number of integer instructions
system.cpu1.num_int_register_reads                 53                       # number of times the integer registers were read
system.cpu1.num_int_register_writes                21                       # number of times the integer registers were written
system.cpu1.num_load_insts                          5                       # Number of load instructions
system.cpu1.num_mem_refs                            6                       # number of memory refs
system.cpu1.num_store_insts                         1                       # Number of store instructions
system.cpu1.num_vec_alu_accesses                    0                       # Number of vector alu accesses
system.cpu1.num_vec_insts                           0                       # number of vector instructions
system.cpu1.num_vec_register_reads                  0                       # number of times the vector registers were read
system.cpu1.num_vec_register_writes                 0                       # number of times the vector registers were written
system.cpu1.op_class::No_OpClass                    0      0.00%      0.00% # Class of executed instruction
system.cpu1.op_class::IntAlu                       19     76.00%     76.00% # Class of executed instruction
system.cpu1.op_class::IntMult                       0      0.00%     76.00% # Class of executed instruction
system.cpu1.op_class::IntDiv                        0      0.00%     76.00% # Class of executed instruction
system.cpu1.op_class::FloatAdd                      0      0.00%     76.00% # Class of executed instruction
system.cpu1.op_class::FloatCmp                      0      0.00%     76.00% # Class of executed instruction
system.cpu1.op_class::FloatCvt                      0      0.00%     76.00% # Class of executed instruction
system.cpu1.op_class::FloatMult                     0      0.00%     76.00% # Class of executed instruction
system.cpu1.op_class::FloatMultAcc                  0      0.00%     76.00% # Class of executed instruction
system.cpu1.op_class::FloatDiv                      0      0.00%     76.00% # Class of executed instruction
system.cpu1.op_class::FloatMisc                     0      0.00%     76.00% # Class of executed instruction
system.cpu1.op_class::FloatSqrt                     0      0.00%     76.00% # Class of executed instruction
system.cpu1.op_class::SimdAdd                       0      0.00%     76.00% # Class of executed instruction
system.cpu1.op_class::SimdAddAcc                    0      0.00%     76.00% # Class of executed instruction
system.cpu1.op_class::SimdAlu                       0      0.00%     76.00% # Class of executed instruction
system.cpu1.op_class::SimdCmp                       0      0.00%     76.00% # Class of executed instruction
system.cpu1.op_class::SimdCvt                       0      0.00%     76.00% # Class of executed instruction
system.cpu1.op_class::SimdMisc                      0      0.00%     76.00% # Class of executed instruction
system.cpu1.op_class::SimdMult                      0      0.00%     76.00% # Class of executed instruction
system.cpu1.op_class::SimdMultAcc                   0      0.00%     76.00% # Class of executed instruction
system.cpu1.op_class::SimdShift                     0      0.00%     76.00% # Class of executed instruction
system.cpu1.op_class::SimdShiftAcc                  0      0.00%     76.00% # Class of executed instruction
system.cpu1.op_class::SimdDiv                       0      0.00%     76.00% # Class of executed instruction
system.cpu1.op_class::SimdSqrt                      0      0.00%     76.00% # Class of executed instruction
system.cpu1.op_class::SimdFloatAdd                  0      0.00%     76.00% # Class of executed instruction
system.cpu1.op_class::SimdFloatAlu                  0      0.00%     76.00% # Class of executed instruction
system.cpu1.op_class::SimdFloatCmp                  0      0.00%     76.00% # Class of executed instruction
system.cpu1.op_class::SimdFloatCvt                  0      0.00%     76.00% # Class of executed instruction
system.cpu1.op_class::SimdFloatDiv                  0      0.00%     76.00% # Class of executed instruction
system.cpu1.op_class::SimdFloatMisc                 0      0.00%     76.00% # Class of executed instruction
system.cpu1.op_class::SimdFloatMult                 0      0.00%     76.00% # Class of executed instruction
system.cpu1.op_class::SimdFloatMultAcc              0      0.00%     76.00% # Class of executed instruction
system.cpu1.op_class::SimdFloatSqrt                 0      0.00%     76.00% # Class of executed instruction
system.cpu1.op_class::SimdReduceAdd                 0      0.00%     76.00% # Class of executed instruction
system.cpu1.op_class::SimdReduceAlu                 0      0.00%     76.00% # Class of executed instruction
system.cpu1.op_class::SimdReduceCmp                 0      0.00%     76.00% # Class of executed instruction
system.cpu1.op_class::SimdFloatReduceAdd            0      0.00%     76.00% # Class of executed instruction
system.cpu1.op_class::SimdFloatReduceCmp            0      0.00%     76.00% # Class of executed instruction
system.cpu1.op_class::SimdAes                       0      0.00%     76.00% # Class of executed instruction
system.cpu1.op_class::SimdAesMix                    0      0.00%     76.00% # Class of executed instruction
system.cpu1.op_class::SimdSha1Hash                  0      0.00%     76.00% # Class of executed instruction
system.cpu1.op_class::SimdSha1Hash2                 0      0.00%     76.00% # Class of executed instruction
system.cpu1.op_class::SimdSha256Hash                0      0.00%     76.00% # Class of executed instruction
system.cpu1.op_class::SimdSha256Hash2               0      0.00%     76.00% # Class of executed instruction
system.cpu1.op_class::SimdShaSigma2                 0      0.00%     76.00% # Class of executed instruction
system.cpu1.op_class::SimdShaSigma3                 0      0.00%     76.00% # Class of executed instruction
system.cpu1.op_class::SimdPredAlu                   0      0.00%     76.00% # Class of executed instruction
system.cpu1.op_class::MemRead                       5     20.00%     96.00% # Class of executed instruction
system.cpu1.op_class::MemWrite                      1      4.00%    100.00% # Class of executed instruction
system.cpu1.op_class::FloatMemRead                  0      0.00%    100.00% # Class of executed instruction
system.cpu1.op_class::FloatMemWrite                 0      0.00%    100.00% # Class of executed instruction
system.cpu1.op_class::IprAccess                     0      0.00%    100.00% # Class of executed instruction
system.cpu1.op_class::InstPrefetch                  0      0.00%    100.00% # Class of executed instruction
system.cpu1.op_class::total                        25                       # Class of executed instruction
system.cpu1.workload.numSyscalls                    0                       # Number of system calls
system.cpu2.Branches                                1                       # Number of branches fetched
system.cpu2.committedInsts                         16                       # Number of instructions committed
system.cpu2.committedOps                           25                       # Number of ops (including micro ops) committed
system.cpu2.idle_fraction                           0                       # Percentage of idle cycles
system.cpu2.l2bus.snoop_filter.hit_multi_requests            3                       # Number of requests hitting in the snoop filter with multiple (>1) holders of the requested data.
system.cpu2.l2bus.snoop_filter.hit_multi_snoops            0                       # Number of snoops hitting in the snoop filter with multiple (>1) holders of the requested data.
system.cpu2.l2bus.snoop_filter.hit_single_requests      2529399                       # Number of requests hitting in the snoop filter with a single holder of the requested data.
system.cpu2.l2bus.snoop_filter.hit_single_snoops          211                       # Number of snoops hitting in the snoop filter with a single holder of the requested data.
system.cpu2.l2bus.snoop_filter.tot_requests      5059502                       # Total number of requests made to the snoop filter.
system.cpu2.l2bus.snoop_filter.tot_snoops          211                       # Total number of snoops made to the snoop filter.
system.cpu2.mmucache.mmubus.snoop_filter.hit_multi_requests            0                       # Number of requests hitting in the snoop filter with multiple (>1) holders of the requested data.
system.cpu2.mmucache.mmubus.snoop_filter.hit_multi_snoops            0                       # Number of snoops hitting in the snoop filter with multiple (>1) holders of the requested data.
system.cpu2.mmucache.mmubus.snoop_filter.hit_single_requests            0                       # Number of requests hitting in the snoop filter with a single holder of the requested data.
system.cpu2.mmucache.mmubus.snoop_filter.hit_single_snoops            0                       # Number of snoops hitting in the snoop filter with a single holder of the requested data.
system.cpu2.mmucache.mmubus.snoop_filter.tot_requests            0                       # Total number of requests made to the snoop filter.
system.cpu2.mmucache.mmubus.snoop_filter.tot_snoops            0                       # Total number of snoops made to the snoop filter.
system.cpu2.not_idle_fraction                       1                       # Percentage of non-idle cycles
system.cpu2.numCycles                              32                       # number of cpu cycles simulated
system.cpu2.numWorkItemsCompleted                   0                       # number of work items this cpu completed
system.cpu2.numWorkItemsStarted                     0                       # number of work items this cpu started
system.cpu2.num_busy_cycles                        32                       # Number of busy cycles
system.cpu2.num_cc_register_reads                   5                       # number of times the CC registers were read
system.cpu2.num_conditional_control_insts            1                       # number of instructions that are conditional controls
system.cpu2.num_fp_alu_accesses                    16                       # Number of float alu accesses
system.cpu2.num_fp_insts                           16                       # number of float instructions
system.cpu2.num_fp_register_reads                  36                       # number of times the floating registers were read
system.cpu2.num_fp_register_writes                 16                       # number of times the floating registers were written
system.cpu2.num_func_calls                          0                       # number of times a function call or return occured
system.cpu2.num_idle_cycles                         0                       # Number of idle cycles
system.cpu2.num_int_alu_accesses                   13                       # Number of integer alu accesses
system.cpu2.num_int_insts                          13                       # number of integer instructions
system.cpu2.num_int_register_reads                 23                       # number of times the integer registers were read
system.cpu2.num_int_register_writes                 8                       # number of times the integer registers were written
system.cpu2.num_load_insts                          3                       # Number of load instructions
system.cpu2.num_mem_refs                            3                       # number of memory refs
system.cpu2.num_store_insts                         0                       # Number of store instructions
system.cpu2.num_vec_alu_accesses                    0                       # Number of vector alu accesses
system.cpu2.num_vec_insts                           0                       # number of vector instructions
system.cpu2.num_vec_register_reads                  0                       # number of times the vector registers were read
system.cpu2.num_vec_register_writes                 0                       # number of times the vector registers were written
system.cpu2.op_class::No_OpClass                    0      0.00%      0.00% # Class of executed instruction
system.cpu2.op_class::IntAlu                        6     24.00%     24.00% # Class of executed instruction
system.cpu2.op_class::IntMult                       0      0.00%     24.00% # Class of executed instruction
system.cpu2.op_class::IntDiv                        0      0.00%     24.00% # Class of executed instruction
system.cpu2.op_class::FloatAdd                      0      0.00%     24.00% # Class of executed instruction
system.cpu2.op_class::FloatCmp                      0      0.00%     24.00% # Class of executed instruction
system.cpu2.op_class::FloatCvt                      0      0.00%     24.00% # Class of executed instruction
system.cpu2.op_class::FloatMult                     0      0.00%     24.00% # Class of executed instruction
system.cpu2.op_class::FloatMultAcc                  0      0.00%     24.00% # Class of executed instruction
system.cpu2.op_class::FloatDiv                      0      0.00%     24.00% # Class of executed instruction
system.cpu2.op_class::FloatMisc                     0      0.00%     24.00% # Class of executed instruction
system.cpu2.op_class::FloatSqrt                     0      0.00%     24.00% # Class of executed instruction
system.cpu2.op_class::SimdAdd                       0      0.00%     24.00% # Class of executed instruction
system.cpu2.op_class::SimdAddAcc                    0      0.00%     24.00% # Class of executed instruction
system.cpu2.op_class::SimdAlu                       0      0.00%     24.00% # Class of executed instruction
system.cpu2.op_class::SimdCmp                       0      0.00%     24.00% # Class of executed instruction
system.cpu2.op_class::SimdCvt                       0      0.00%     24.00% # Class of executed instruction
system.cpu2.op_class::SimdMisc                      4     16.00%     40.00% # Class of executed instruction
system.cpu2.op_class::SimdMult                      0      0.00%     40.00% # Class of executed instruction
system.cpu2.op_class::SimdMultAcc                   0      0.00%     40.00% # Class of executed instruction
system.cpu2.op_class::SimdShift                     0      0.00%     40.00% # Class of executed instruction
system.cpu2.op_class::SimdShiftAcc                  0      0.00%     40.00% # Class of executed instruction
system.cpu2.op_class::SimdDiv                       0      0.00%     40.00% # Class of executed instruction
system.cpu2.op_class::SimdSqrt                      0      0.00%     40.00% # Class of executed instruction
system.cpu2.op_class::SimdFloatAdd                  4     16.00%     56.00% # Class of executed instruction
system.cpu2.op_class::SimdFloatAlu                  0      0.00%     56.00% # Class of executed instruction
system.cpu2.op_class::SimdFloatCmp                  0      0.00%     56.00% # Class of executed instruction
system.cpu2.op_class::SimdFloatCvt                  4     16.00%     72.00% # Class of executed instruction
system.cpu2.op_class::SimdFloatDiv                  0      0.00%     72.00% # Class of executed instruction
system.cpu2.op_class::SimdFloatMisc                 0      0.00%     72.00% # Class of executed instruction
system.cpu2.op_class::SimdFloatMult                 4     16.00%     88.00% # Class of executed instruction
system.cpu2.op_class::SimdFloatMultAcc              0      0.00%     88.00% # Class of executed instruction
system.cpu2.op_class::SimdFloatSqrt                 0      0.00%     88.00% # Class of executed instruction
system.cpu2.op_class::SimdReduceAdd                 0      0.00%     88.00% # Class of executed instruction
system.cpu2.op_class::SimdReduceAlu                 0      0.00%     88.00% # Class of executed instruction
system.cpu2.op_class::SimdReduceCmp                 0      0.00%     88.00% # Class of executed instruction
system.cpu2.op_class::SimdFloatReduceAdd            0      0.00%     88.00% # Class of executed instruction
system.cpu2.op_class::SimdFloatReduceCmp            0      0.00%     88.00% # Class of executed instruction
system.cpu2.op_class::SimdAes                       0      0.00%     88.00% # Class of executed instruction
system.cpu2.op_class::SimdAesMix                    0      0.00%     88.00% # Class of executed instruction
system.cpu2.op_class::SimdSha1Hash                  0      0.00%     88.00% # Class of executed instruction
system.cpu2.op_class::SimdSha1Hash2                 0      0.00%     88.00% # Class of executed instruction
system.cpu2.op_class::SimdSha256Hash                0      0.00%     88.00% # Class of executed instruction
system.cpu2.op_class::SimdSha256Hash2               0      0.00%     88.00% # Class of executed instruction
system.cpu2.op_class::SimdShaSigma2                 0      0.00%     88.00% # Class of executed instruction
system.cpu2.op_class::SimdShaSigma3                 0      0.00%     88.00% # Class of executed instruction
system.cpu2.op_class::SimdPredAlu                   0      0.00%     88.00% # Class of executed instruction
system.cpu2.op_class::MemRead                       3     12.00%    100.00% # Class of executed instruction
system.cpu2.op_class::MemWrite                      0      0.00%    100.00% # Class of executed instruction
system.cpu2.op_class::FloatMemRead                  0      0.00%    100.00% # Class of executed instruction
system.cpu2.op_class::FloatMemWrite                 0      0.00%    100.00% # Class of executed instruction
system.cpu2.op_class::IprAccess                     0      0.00%    100.00% # Class of executed instruction
system.cpu2.op_class::InstPrefetch                  0      0.00%    100.00% # Class of executed instruction
system.cpu2.op_class::total                        25                       # Class of executed instruction
system.cpu2.workload.numSyscalls                    0                       # Number of system calls
system.cpu3.Branches                                1                       # Number of branches fetched
system.cpu3.committedInsts                         20                       # Number of instructions committed
system.cpu3.committedOps                           25                       # Number of ops (including micro ops) committed
system.cpu3.idle_fraction                           0                       # Percentage of idle cycles
system.cpu3.l2bus.snoop_filter.hit_multi_requests          220                       # Number of requests hitting in the snoop filter with multiple (>1) holders of the requested data.
system.cpu3.l2bus.snoop_filter.hit_multi_snoops            0                       # Number of snoops hitting in the snoop filter with multiple (>1) holders of the requested data.
system.cpu3.l2bus.snoop_filter.hit_single_requests       301214                       # Number of requests hitting in the snoop filter with a single holder of the requested data.
system.cpu3.l2bus.snoop_filter.hit_single_snoops          417                       # Number of snoops hitting in the snoop filter with a single holder of the requested data.
system.cpu3.l2bus.snoop_filter.tot_requests       603312                       # Total number of requests made to the snoop filter.
system.cpu3.l2bus.snoop_filter.tot_snoops          417                       # Total number of snoops made to the snoop filter.
system.cpu3.mmucache.mmubus.snoop_filter.hit_multi_requests            0                       # Number of requests hitting in the snoop filter with multiple (>1) holders of the requested data.
system.cpu3.mmucache.mmubus.snoop_filter.hit_multi_snoops            0                       # Number of snoops hitting in the snoop filter with multiple (>1) holders of the requested data.
system.cpu3.mmucache.mmubus.snoop_filter.hit_single_requests            0                       # Number of requests hitting in the snoop filter with a single holder of the requested data.
system.cpu3.mmucache.mmubus.snoop_filter.hit_single_snoops            0                       # Number of snoops hitting in the snoop filter with a single holder of the requested data.
system.cpu3.mmucache.mmubus.snoop_filter.tot_requests            0                       # Total number of requests made to the snoop filter.
system.cpu3.mmucache.mmubus.snoop_filter.tot_snoops            0                       # Total number of snoops made to the snoop filter.
system.cpu3.not_idle_fraction                       1                       # Percentage of non-idle cycles
system.cpu3.numCycles                              30                       # number of cpu cycles simulated
system.cpu3.numWorkItemsCompleted                   0                       # number of work items this cpu completed
system.cpu3.numWorkItemsStarted                     0                       # number of work items this cpu started
system.cpu3.num_busy_cycles                        30                       # Number of busy cycles
system.cpu3.num_cc_register_reads                  18                       # number of times the CC registers were read
system.cpu3.num_cc_register_writes                 14                       # number of times the CC registers were written
system.cpu3.num_conditional_control_insts            1                       # number of instructions that are conditional controls
system.cpu3.num_fp_alu_accesses                     6                       # Number of float alu accesses
system.cpu3.num_fp_insts                            6                       # number of float instructions
system.cpu3.num_fp_register_reads                   3                       # number of times the floating registers were read
system.cpu3.num_fp_register_writes                  3                       # number of times the floating registers were written
system.cpu3.num_func_calls                          0                       # number of times a function call or return occured
system.cpu3.num_idle_cycles                         0                       # Number of idle cycles
system.cpu3.num_int_alu_accesses                   23                       # Number of integer alu accesses
system.cpu3.num_int_insts                          23                       # number of integer instructions
system.cpu3.num_int_register_reads                 54                       # number of times the integer registers were read
system.cpu3.num_int_register_writes                15                       # number of times the integer registers were written
system.cpu3.num_load_insts                          4                       # Number of load instructions
system.cpu3.num_mem_refs                           10                       # number of memory refs
system.cpu3.num_store_insts                         6                       # Number of store instructions
system.cpu3.num_vec_alu_accesses                    0                       # Number of vector alu accesses
system.cpu3.num_vec_insts                           0                       # number of vector instructions
system.cpu3.num_vec_register_reads                  0                       # number of times the vector registers were read
system.cpu3.num_vec_register_writes                 0                       # number of times the vector registers were written
system.cpu3.op_class::No_OpClass                    0      0.00%      0.00% # Class of executed instruction
system.cpu3.op_class::IntAlu                       13     52.00%     52.00% # Class of executed instruction
system.cpu3.op_class::IntMult                       0      0.00%     52.00% # Class of executed instruction
system.cpu3.op_class::IntDiv                        0      0.00%     52.00% # Class of executed instruction
system.cpu3.op_class::FloatAdd                      2      8.00%     60.00% # Class of executed instruction
system.cpu3.op_class::FloatCmp                      0      0.00%     60.00% # Class of executed instruction
system.cpu3.op_class::FloatCvt                      0      0.00%     60.00% # Class of executed instruction
system.cpu3.op_class::FloatMult                     0      0.00%     60.00% # Class of executed instruction
system.cpu3.op_class::FloatMultAcc                  0      0.00%     60.00% # Class of executed instruction
system.cpu3.op_class::FloatDiv                      0      0.00%     60.00% # Class of executed instruction
system.cpu3.op_class::FloatMisc                     0      0.00%     60.00% # Class of executed instruction
system.cpu3.op_class::FloatSqrt                     0      0.00%     60.00% # Class of executed instruction
system.cpu3.op_class::SimdAdd                       0      0.00%     60.00% # Class of executed instruction
system.cpu3.op_class::SimdAddAcc                    0      0.00%     60.00% # Class of executed instruction
system.cpu3.op_class::SimdAlu                       0      0.00%     60.00% # Class of executed instruction
system.cpu3.op_class::SimdCmp                       0      0.00%     60.00% # Class of executed instruction
system.cpu3.op_class::SimdCvt                       0      0.00%     60.00% # Class of executed instruction
system.cpu3.op_class::SimdMisc                      0      0.00%     60.00% # Class of executed instruction
system.cpu3.op_class::SimdMult                      0      0.00%     60.00% # Class of executed instruction
system.cpu3.op_class::SimdMultAcc                   0      0.00%     60.00% # Class of executed instruction
system.cpu3.op_class::SimdShift                     0      0.00%     60.00% # Class of executed instruction
system.cpu3.op_class::SimdShiftAcc                  0      0.00%     60.00% # Class of executed instruction
system.cpu3.op_class::SimdDiv                       0      0.00%     60.00% # Class of executed instruction
system.cpu3.op_class::SimdSqrt                      0      0.00%     60.00% # Class of executed instruction
system.cpu3.op_class::SimdFloatAdd                  0      0.00%     60.00% # Class of executed instruction
system.cpu3.op_class::SimdFloatAlu                  0      0.00%     60.00% # Class of executed instruction
system.cpu3.op_class::SimdFloatCmp                  0      0.00%     60.00% # Class of executed instruction
system.cpu3.op_class::SimdFloatCvt                  0      0.00%     60.00% # Class of executed instruction
system.cpu3.op_class::SimdFloatDiv                  0      0.00%     60.00% # Class of executed instruction
system.cpu3.op_class::SimdFloatMisc                 0      0.00%     60.00% # Class of executed instruction
system.cpu3.op_class::SimdFloatMult                 0      0.00%     60.00% # Class of executed instruction
system.cpu3.op_class::SimdFloatMultAcc              0      0.00%     60.00% # Class of executed instruction
system.cpu3.op_class::SimdFloatSqrt                 0      0.00%     60.00% # Class of executed instruction
system.cpu3.op_class::SimdReduceAdd                 0      0.00%     60.00% # Class of executed instruction
system.cpu3.op_class::SimdReduceAlu                 0      0.00%     60.00% # Class of executed instruction
system.cpu3.op_class::SimdReduceCmp                 0      0.00%     60.00% # Class of executed instruction
system.cpu3.op_class::SimdFloatReduceAdd            0      0.00%     60.00% # Class of executed instruction
system.cpu3.op_class::SimdFloatReduceCmp            0      0.00%     60.00% # Class of executed instruction
system.cpu3.op_class::SimdAes                       0      0.00%     60.00% # Class of executed instruction
system.cpu3.op_class::SimdAesMix                    0      0.00%     60.00% # Class of executed instruction
system.cpu3.op_class::SimdSha1Hash                  0      0.00%     60.00% # Class of executed instruction
system.cpu3.op_class::SimdSha1Hash2                 0      0.00%     60.00% # Class of executed instruction
system.cpu3.op_class::SimdSha256Hash                0      0.00%     60.00% # Class of executed instruction
system.cpu3.op_class::SimdSha256Hash2               0      0.00%     60.00% # Class of executed instruction
system.cpu3.op_class::SimdShaSigma2                 0      0.00%     60.00% # Class of executed instruction
system.cpu3.op_class::SimdShaSigma3                 0      0.00%     60.00% # Class of executed instruction
system.cpu3.op_class::SimdPredAlu                   0      0.00%     60.00% # Class of executed instruction
system.cpu3.op_class::MemRead                       3     12.00%     72.00% # Class of executed instruction
system.cpu3.op_class::MemWrite                      3     12.00%     84.00% # Class of executed instruction
system.cpu3.op_class::FloatMemRead                  1      4.00%     88.00% # Class of executed instruction
system.cpu3.op_class::FloatMemWrite                 3     12.00%    100.00% # Class of executed instruction
system.cpu3.op_class::IprAccess                     0      0.00%    100.00% # Class of executed instruction
system.cpu3.op_class::InstPrefetch                  0      0.00%    100.00% # Class of executed instruction
system.cpu3.op_class::total                        25                       # Class of executed instruction
system.cpu3.workload.numSyscalls                    0                       # Number of system calls
system.l3bus.snoop_filter.hit_multi_requests            0                       # Number of requests hitting in the snoop filter with multiple (>1) holders of the requested data.
system.l3bus.snoop_filter.hit_multi_snoops            0                       # Number of snoops hitting in the snoop filter with multiple (>1) holders of the requested data.
system.l3bus.snoop_filter.hit_single_requests      1917134                       # Number of requests hitting in the snoop filter with a single holder of the requested data.
system.l3bus.snoop_filter.hit_single_snoops            0                       # Number of snoops hitting in the snoop filter with a single holder of the requested data.
system.l3bus.snoop_filter.tot_requests        3851662                       # Total number of requests made to the snoop filter.
system.l3bus.snoop_filter.tot_snoops                0                       # Total number of snoops made to the snoop filter.
system.membus.snoop_filter.hit_multi_requests            0                       # Number of requests hitting in the snoop filter with multiple (>1) holders of the requested data.
system.membus.snoop_filter.hit_multi_snoops            0                       # Number of snoops hitting in the snoop filter with multiple (>1) holders of the requested data.
system.membus.snoop_filter.hit_single_requests       937230                       # Number of requests hitting in the snoop filter with a single holder of the requested data.
system.membus.snoop_filter.hit_single_snoops            0                       # Number of snoops hitting in the snoop filter with a single holder of the requested data.
system.membus.snoop_filter.tot_requests       1953972                       # Total number of requests made to the snoop filter.
system.membus.snoop_filter.tot_snoops               0                       # Total number of snoops made to the snoop filter.
system.switch_cpus0.cc_regfile_reads         37931207                       # number of cc regfile reads
system.switch_cpus0.cc_regfile_writes        31508568                       # number of cc regfile writes
system.switch_cpus0.committedInsts           79595076                       # Number of Instructions Simulated
system.switch_cpus0.committedOps            122831285                       # Number of Ops (including micro ops) Simulated
system.switch_cpus0.cpi                      1.091592                       # CPI: Cycles Per Instruction
system.switch_cpus0.cpi_total                1.091592                       # CPI: Total CPI of All Threads
system.switch_cpus0.fp_regfile_reads        101850683                       # number of floating regfile reads
system.switch_cpus0.fp_regfile_writes        50423363                       # number of floating regfile writes
system.switch_cpus0.idleCycles                  44965                       # Total number of cycles that the CPU has spent unscheduled due to idling
system.switch_cpus0.iew.branchMispredicts         8055                       # Number of branch mispredicts detected at execute
system.switch_cpus0.iew.exec_branches         8186685                       # Number of branches executed
system.switch_cpus0.iew.exec_nop                    0                       # number of nop insts executed
system.switch_cpus0.iew.exec_rate            1.414921                       # Inst execution rate
system.switch_cpus0.iew.exec_refs            29377094                       # number of memory reference insts executed
system.switch_cpus0.iew.exec_stores           8087671                       # Number of stores executed
system.switch_cpus0.iew.exec_swp                    0                       # number of swp insts executed
system.switch_cpus0.iew.iewBlockCycles       20146539                       # Number of cycles IEW is blocking
system.switch_cpus0.iew.iewDispLoadInsts     21306473                       # Number of dispatched load instructions
system.switch_cpus0.iew.iewDispNonSpecInsts            3                       # Number of dispatched non-speculative instructions
system.switch_cpus0.iew.iewDispSquashedInsts          508                       # Number of squashed instructions skipped by dispatch
system.switch_cpus0.iew.iewDispStoreInsts      8101590                       # Number of dispatched store instructions
system.switch_cpus0.iew.iewDispatchedInsts    123044120                       # Number of instructions dispatched to IQ
system.switch_cpus0.iew.iewExecLoadInsts     21289423                       # Number of load instructions executed
system.switch_cpus0.iew.iewExecSquashedInsts        19719                       # Number of squashed instructions skipped in execute
system.switch_cpus0.iew.iewExecutedInsts    122935942                       # Number of executed instructions
system.switch_cpus0.iew.iewIQFullEvents         85432                       # Number of times the IQ has become full, causing a stall
system.switch_cpus0.iew.iewIdleCycles               0                       # Number of cycles IEW is idle
system.switch_cpus0.iew.iewLSQFullEvents     10197112                       # Number of times the LSQ has become full, causing a stall
system.switch_cpus0.iew.iewSquashCycles          8501                       # Number of cycles IEW is squashing
system.switch_cpus0.iew.iewUnblockCycles     10349551                       # Number of cycles IEW is unblocking
system.switch_cpus0.iew.memOrderViolationEvents          549                       # Number of memory order violations
system.switch_cpus0.iew.predictedNotTakenIncorrect         1784                       # Number of branches that were predicted not taken incorrectly
system.switch_cpus0.iew.predictedTakenIncorrect         6271                       # Number of branches that were predicted taken incorrectly
system.switch_cpus0.iew.wb_consumers        153124621                       # num instructions consuming a value
system.switch_cpus0.iew.wb_count            122914017                       # cumulative count of insts written-back
system.switch_cpus0.iew.wb_fanout            0.601825                       # average fanout of values written-back
system.switch_cpus0.iew.wb_producers         92154161                       # num instructions producing a value
system.switch_cpus0.iew.wb_rate              1.414669                       # insts written-back per cycle
system.switch_cpus0.iew.wb_sent             122923995                       # cumulative count of insts sent to commit
system.switch_cpus0.int_regfile_reads       119112748                       # number of integer regfile reads
system.switch_cpus0.int_regfile_writes       54173438                       # number of integer regfile writes
system.switch_cpus0.ipc                      0.916093                       # IPC: Instructions Per Cycle
system.switch_cpus0.ipc_total                0.916093                       # IPC: Total IPC of All Threads
system.switch_cpus0.iq.FU_type_0::No_OpClass         6656      0.01%      0.01% # Type of FU issued
system.switch_cpus0.iq.FU_type_0::IntAlu     63630162     51.75%     51.76% # Type of FU issued
system.switch_cpus0.iq.FU_type_0::IntMult         2351      0.00%     51.76% # Type of FU issued
system.switch_cpus0.iq.FU_type_0::IntDiv            0      0.00%     51.76% # Type of FU issued
system.switch_cpus0.iq.FU_type_0::FloatAdd      1966466      1.60%     53.36% # Type of FU issued
system.switch_cpus0.iq.FU_type_0::FloatCmp            0      0.00%     53.36% # Type of FU issued
system.switch_cpus0.iq.FU_type_0::FloatCvt            0      0.00%     53.36% # Type of FU issued
system.switch_cpus0.iq.FU_type_0::FloatMult            0      0.00%     53.36% # Type of FU issued
system.switch_cpus0.iq.FU_type_0::FloatMultAcc            0      0.00%     53.36% # Type of FU issued
system.switch_cpus0.iq.FU_type_0::FloatDiv            0      0.00%     53.36% # Type of FU issued
system.switch_cpus0.iq.FU_type_0::FloatMisc            0      0.00%     53.36% # Type of FU issued
system.switch_cpus0.iq.FU_type_0::FloatSqrt            0      0.00%     53.36% # Type of FU issued
system.switch_cpus0.iq.FU_type_0::SimdAdd            0      0.00%     53.36% # Type of FU issued
system.switch_cpus0.iq.FU_type_0::SimdAddAcc            0      0.00%     53.36% # Type of FU issued
system.switch_cpus0.iq.FU_type_0::SimdAlu      2592544      2.11%     55.47% # Type of FU issued
system.switch_cpus0.iq.FU_type_0::SimdCmp            0      0.00%     55.47% # Type of FU issued
system.switch_cpus0.iq.FU_type_0::SimdCvt            0      0.00%     55.47% # Type of FU issued
system.switch_cpus0.iq.FU_type_0::SimdMisc      1181931      0.96%     56.43% # Type of FU issued
system.switch_cpus0.iq.FU_type_0::SimdMult            0      0.00%     56.43% # Type of FU issued
system.switch_cpus0.iq.FU_type_0::SimdMultAcc            0      0.00%     56.43% # Type of FU issued
system.switch_cpus0.iq.FU_type_0::SimdShift            0      0.00%     56.43% # Type of FU issued
system.switch_cpus0.iq.FU_type_0::SimdShiftAcc            0      0.00%     56.43% # Type of FU issued
system.switch_cpus0.iq.FU_type_0::SimdDiv            0      0.00%     56.43% # Type of FU issued
system.switch_cpus0.iq.FU_type_0::SimdSqrt            0      0.00%     56.43% # Type of FU issued
system.switch_cpus0.iq.FU_type_0::SimdFloatAdd      9584173      7.79%     64.22% # Type of FU issued
system.switch_cpus0.iq.FU_type_0::SimdFloatAlu            0      0.00%     64.22% # Type of FU issued
system.switch_cpus0.iq.FU_type_0::SimdFloatCmp       376832      0.31%     64.53% # Type of FU issued
system.switch_cpus0.iq.FU_type_0::SimdFloatCvt      2048002      1.67%     66.19% # Type of FU issued
system.switch_cpus0.iq.FU_type_0::SimdFloatDiv      2276343      1.85%     68.05% # Type of FU issued
system.switch_cpus0.iq.FU_type_0::SimdFloatMisc            0      0.00%     68.05% # Type of FU issued
system.switch_cpus0.iq.FU_type_0::SimdFloatMult      9493031      7.72%     75.77% # Type of FU issued
system.switch_cpus0.iq.FU_type_0::SimdFloatMultAcc            0      0.00%     75.77% # Type of FU issued
system.switch_cpus0.iq.FU_type_0::SimdFloatSqrt       409602      0.33%     76.10% # Type of FU issued
system.switch_cpus0.iq.FU_type_0::SimdReduceAdd            0      0.00%     76.10% # Type of FU issued
system.switch_cpus0.iq.FU_type_0::SimdReduceAlu            0      0.00%     76.10% # Type of FU issued
system.switch_cpus0.iq.FU_type_0::SimdReduceCmp            0      0.00%     76.10% # Type of FU issued
system.switch_cpus0.iq.FU_type_0::SimdFloatReduceAdd            0      0.00%     76.10% # Type of FU issued
system.switch_cpus0.iq.FU_type_0::SimdFloatReduceCmp            0      0.00%     76.10% # Type of FU issued
system.switch_cpus0.iq.FU_type_0::SimdAes            0      0.00%     76.10% # Type of FU issued
system.switch_cpus0.iq.FU_type_0::SimdAesMix            0      0.00%     76.10% # Type of FU issued
system.switch_cpus0.iq.FU_type_0::SimdSha1Hash            0      0.00%     76.10% # Type of FU issued
system.switch_cpus0.iq.FU_type_0::SimdSha1Hash2            0      0.00%     76.10% # Type of FU issued
system.switch_cpus0.iq.FU_type_0::SimdSha256Hash            0      0.00%     76.10% # Type of FU issued
system.switch_cpus0.iq.FU_type_0::SimdSha256Hash2            0      0.00%     76.10% # Type of FU issued
system.switch_cpus0.iq.FU_type_0::SimdShaSigma2            0      0.00%     76.10% # Type of FU issued
system.switch_cpus0.iq.FU_type_0::SimdShaSigma3            0      0.00%     76.10% # Type of FU issued
system.switch_cpus0.iq.FU_type_0::SimdPredAlu            0      0.00%     76.10% # Type of FU issued
system.switch_cpus0.iq.FU_type_0::MemRead      7611954      6.19%     82.29% # Type of FU issued
system.switch_cpus0.iq.FU_type_0::MemWrite      2805876      2.28%     84.57% # Type of FU issued
system.switch_cpus0.iq.FU_type_0::FloatMemRead     13686949     11.13%     95.70% # Type of FU issued
system.switch_cpus0.iq.FU_type_0::FloatMemWrite      5282789      4.30%    100.00% # Type of FU issued
system.switch_cpus0.iq.FU_type_0::IprAccess            0      0.00%    100.00% # Type of FU issued
system.switch_cpus0.iq.FU_type_0::InstPrefetch            0      0.00%    100.00% # Type of FU issued
system.switch_cpus0.iq.FU_type_0::total     122955661                       # Type of FU issued
system.switch_cpus0.iq.fp_alu_accesses       59385171                       # Number of floating point alu accesses
system.switch_cpus0.iq.fp_inst_queue_reads    118332720                       # Number of floating instruction queue reads
system.switch_cpus0.iq.fp_inst_queue_wakeup_accesses     58929425                       # Number of floating instruction queue wakeup accesses
system.switch_cpus0.iq.fp_inst_queue_writes     59099780                       # Number of floating instruction queue writes
system.switch_cpus0.iq.fu_busy_cnt            1205481                       # FU busy when requested
system.switch_cpus0.iq.fu_busy_rate          0.009804                       # FU busy rate (busy events/executed inst)
system.switch_cpus0.iq.fu_full::No_OpClass            0      0.00%      0.00% # attempts to use FU when none available
system.switch_cpus0.iq.fu_full::IntAlu         551472     45.75%     45.75% # attempts to use FU when none available
system.switch_cpus0.iq.fu_full::IntMult             0      0.00%     45.75% # attempts to use FU when none available
system.switch_cpus0.iq.fu_full::IntDiv              0      0.00%     45.75% # attempts to use FU when none available
system.switch_cpus0.iq.fu_full::FloatAdd            0      0.00%     45.75% # attempts to use FU when none available
system.switch_cpus0.iq.fu_full::FloatCmp            0      0.00%     45.75% # attempts to use FU when none available
system.switch_cpus0.iq.fu_full::FloatCvt            0      0.00%     45.75% # attempts to use FU when none available
system.switch_cpus0.iq.fu_full::FloatMult            0      0.00%     45.75% # attempts to use FU when none available
system.switch_cpus0.iq.fu_full::FloatMultAcc            0      0.00%     45.75% # attempts to use FU when none available
system.switch_cpus0.iq.fu_full::FloatDiv            0      0.00%     45.75% # attempts to use FU when none available
system.switch_cpus0.iq.fu_full::FloatMisc            0      0.00%     45.75% # attempts to use FU when none available
system.switch_cpus0.iq.fu_full::FloatSqrt            0      0.00%     45.75% # attempts to use FU when none available
system.switch_cpus0.iq.fu_full::SimdAdd             0      0.00%     45.75% # attempts to use FU when none available
system.switch_cpus0.iq.fu_full::SimdAddAcc            0      0.00%     45.75% # attempts to use FU when none available
system.switch_cpus0.iq.fu_full::SimdAlu         29478      2.45%     48.19% # attempts to use FU when none available
system.switch_cpus0.iq.fu_full::SimdCmp             0      0.00%     48.19% # attempts to use FU when none available
system.switch_cpus0.iq.fu_full::SimdCvt             0      0.00%     48.19% # attempts to use FU when none available
system.switch_cpus0.iq.fu_full::SimdMisc            0      0.00%     48.19% # attempts to use FU when none available
system.switch_cpus0.iq.fu_full::SimdMult            0      0.00%     48.19% # attempts to use FU when none available
system.switch_cpus0.iq.fu_full::SimdMultAcc            0      0.00%     48.19% # attempts to use FU when none available
system.switch_cpus0.iq.fu_full::SimdShift            0      0.00%     48.19% # attempts to use FU when none available
system.switch_cpus0.iq.fu_full::SimdShiftAcc            0      0.00%     48.19% # attempts to use FU when none available
system.switch_cpus0.iq.fu_full::SimdDiv             0      0.00%     48.19% # attempts to use FU when none available
system.switch_cpus0.iq.fu_full::SimdSqrt            0      0.00%     48.19% # attempts to use FU when none available
system.switch_cpus0.iq.fu_full::SimdFloatAdd        51779      4.30%     52.49% # attempts to use FU when none available
system.switch_cpus0.iq.fu_full::SimdFloatAlu            0      0.00%     52.49% # attempts to use FU when none available
system.switch_cpus0.iq.fu_full::SimdFloatCmp            0      0.00%     52.49% # attempts to use FU when none available
system.switch_cpus0.iq.fu_full::SimdFloatCvt            0      0.00%     52.49% # attempts to use FU when none available
system.switch_cpus0.iq.fu_full::SimdFloatDiv        18283      1.52%     54.00% # attempts to use FU when none available
system.switch_cpus0.iq.fu_full::SimdFloatMisc            0      0.00%     54.00% # attempts to use FU when none available
system.switch_cpus0.iq.fu_full::SimdFloatMult       105195      8.73%     62.73% # attempts to use FU when none available
system.switch_cpus0.iq.fu_full::SimdFloatMultAcc            0      0.00%     62.73% # attempts to use FU when none available
system.switch_cpus0.iq.fu_full::SimdFloatSqrt            0      0.00%     62.73% # attempts to use FU when none available
system.switch_cpus0.iq.fu_full::SimdReduceAdd            0      0.00%     62.73% # attempts to use FU when none available
system.switch_cpus0.iq.fu_full::SimdReduceAlu            0      0.00%     62.73% # attempts to use FU when none available
system.switch_cpus0.iq.fu_full::SimdReduceCmp            0      0.00%     62.73% # attempts to use FU when none available
system.switch_cpus0.iq.fu_full::SimdFloatReduceAdd            0      0.00%     62.73% # attempts to use FU when none available
system.switch_cpus0.iq.fu_full::SimdFloatReduceCmp            0      0.00%     62.73% # attempts to use FU when none available
system.switch_cpus0.iq.fu_full::SimdAes             0      0.00%     62.73% # attempts to use FU when none available
system.switch_cpus0.iq.fu_full::SimdAesMix            0      0.00%     62.73% # attempts to use FU when none available
system.switch_cpus0.iq.fu_full::SimdSha1Hash            0      0.00%     62.73% # attempts to use FU when none available
system.switch_cpus0.iq.fu_full::SimdSha1Hash2            0      0.00%     62.73% # attempts to use FU when none available
system.switch_cpus0.iq.fu_full::SimdSha256Hash            0      0.00%     62.73% # attempts to use FU when none available
system.switch_cpus0.iq.fu_full::SimdSha256Hash2            0      0.00%     62.73% # attempts to use FU when none available
system.switch_cpus0.iq.fu_full::SimdShaSigma2            0      0.00%     62.73% # attempts to use FU when none available
system.switch_cpus0.iq.fu_full::SimdShaSigma3            0      0.00%     62.73% # attempts to use FU when none available
system.switch_cpus0.iq.fu_full::SimdPredAlu            0      0.00%     62.73% # attempts to use FU when none available
system.switch_cpus0.iq.fu_full::MemRead        216273     17.94%     80.67% # attempts to use FU when none available
system.switch_cpus0.iq.fu_full::MemWrite         4170      0.35%     81.02% # attempts to use FU when none available
system.switch_cpus0.iq.fu_full::FloatMemRead       227883     18.90%     99.92% # attempts to use FU when none available
system.switch_cpus0.iq.fu_full::FloatMemWrite          948      0.08%    100.00% # attempts to use FU when none available
system.switch_cpus0.iq.fu_full::IprAccess            0      0.00%    100.00% # attempts to use FU when none available
system.switch_cpus0.iq.fu_full::InstPrefetch            0      0.00%    100.00% # attempts to use FU when none available
system.switch_cpus0.iq.int_alu_accesses      64769315                       # Number of integer alu accesses
system.switch_cpus0.iq.int_inst_queue_reads    215627358                       # Number of integer instruction queue reads
system.switch_cpus0.iq.int_inst_queue_wakeup_accesses     63984592                       # Number of integer instruction queue wakeup accesses
system.switch_cpus0.iq.int_inst_queue_writes     64157565                       # Number of integer instruction queue writes
system.switch_cpus0.iq.iqInstsAdded         123044111                       # Number of instructions added to the IQ (excludes non-spec)
system.switch_cpus0.iq.iqInstsIssued        122955661                       # Number of instructions issued
system.switch_cpus0.iq.iqNonSpecInstsAdded            9                       # Number of non-speculative instructions added to the IQ
system.switch_cpus0.iq.iqSquashedInstsExamined       212686                       # Number of squashed instructions iterated over during squash; mainly for profiling
system.switch_cpus0.iq.iqSquashedInstsIssued         2869                       # Number of squashed instructions issued
system.switch_cpus0.iq.iqSquashedNonSpecRemoved            9                       # Number of squashed non-spec instructions that were removed
system.switch_cpus0.iq.iqSquashedOperandsExamined       376240                       # Number of squashed operands that are examined and possibly removed from graph
system.switch_cpus0.iq.issued_per_cycle::samples     86840406                       # Number of insts issued each cycle
system.switch_cpus0.iq.issued_per_cycle::mean     1.415881                       # Number of insts issued each cycle
system.switch_cpus0.iq.issued_per_cycle::stdev     2.528791                       # Number of insts issued each cycle
system.switch_cpus0.iq.issued_per_cycle::underflows            0      0.00%      0.00% # Number of insts issued each cycle
system.switch_cpus0.iq.issued_per_cycle::0     61432164     70.74%     70.74% # Number of insts issued each cycle
system.switch_cpus0.iq.issued_per_cycle::1      2700290      3.11%     73.85% # Number of insts issued each cycle
system.switch_cpus0.iq.issued_per_cycle::2      2579169      2.97%     76.82% # Number of insts issued each cycle
system.switch_cpus0.iq.issued_per_cycle::3      2562744      2.95%     79.77% # Number of insts issued each cycle
system.switch_cpus0.iq.issued_per_cycle::4      3248101      3.74%     83.51% # Number of insts issued each cycle
system.switch_cpus0.iq.issued_per_cycle::5      3412077      3.93%     87.44% # Number of insts issued each cycle
system.switch_cpus0.iq.issued_per_cycle::6      3225575      3.71%     91.16% # Number of insts issued each cycle
system.switch_cpus0.iq.issued_per_cycle::7      3439726      3.96%     95.12% # Number of insts issued each cycle
system.switch_cpus0.iq.issued_per_cycle::8      4240560      4.88%    100.00% # Number of insts issued each cycle
system.switch_cpus0.iq.issued_per_cycle::overflows            0      0.00%    100.00% # Number of insts issued each cycle
system.switch_cpus0.iq.issued_per_cycle::min_value            0                       # Number of insts issued each cycle
system.switch_cpus0.iq.issued_per_cycle::max_value            8                       # Number of insts issued each cycle
system.switch_cpus0.iq.issued_per_cycle::total     86840406                       # Number of insts issued each cycle
system.switch_cpus0.iq.rate                  1.415148                       # Inst issue rate
system.switch_cpus0.iq.vec_alu_accesses             0                       # Number of vector alu accesses
system.switch_cpus0.iq.vec_inst_queue_reads            0                       # Number of vector instruction queue reads
system.switch_cpus0.iq.vec_inst_queue_wakeup_accesses            0                       # Number of vector instruction queue wakeup accesses
system.switch_cpus0.iq.vec_inst_queue_writes            0                       # Number of vector instruction queue writes
system.switch_cpus0.memDep0.conflictingLoads       718670                       # Number of conflicting loads.
system.switch_cpus0.memDep0.conflictingStores       680903                       # Number of conflicting stores.
system.switch_cpus0.memDep0.insertedLoads     21306473                       # Number of loads inserted to the mem dependence unit.
system.switch_cpus0.memDep0.insertedStores      8101590                       # Number of stores inserted to the mem dependence unit.
system.switch_cpus0.misc_regfile_reads       49900378                       # number of misc regfile reads
system.switch_cpus0.misc_regfile_writes             1                       # number of misc regfile writes
system.switch_cpus0.numCycles                86885371                       # number of cpu cycles simulated
system.switch_cpus0.numWorkItemsCompleted            0                       # number of work items this cpu completed
system.switch_cpus0.numWorkItemsStarted             0                       # number of work items this cpu started
system.switch_cpus0.timesIdled                    227                       # Number of times that the entire CPU went into an idle state and unscheduled itself
system.switch_cpus1.cc_regfile_reads         83067252                       # number of cc regfile reads
system.switch_cpus1.cc_regfile_writes        34066502                       # number of cc regfile writes
system.switch_cpus1.committedInsts           54629025                       # Number of Instructions Simulated
system.switch_cpus1.committedOps             94080788                       # Number of Ops (including micro ops) Simulated
system.switch_cpus1.cpi                      1.590462                       # CPI: Cycles Per Instruction
system.switch_cpus1.cpi_total                1.590462                       # CPI: Total CPI of All Threads
system.switch_cpus1.fp_regfile_writes              56                       # number of floating regfile writes
system.switch_cpus1.idleCycles                  12331                       # Total number of cycles that the CPU has spent unscheduled due to idling
system.switch_cpus1.iew.branchMispredicts      1298172                       # Number of branch mispredicts detected at execute
system.switch_cpus1.iew.exec_branches        21850180                       # Number of branches executed
system.switch_cpus1.iew.exec_nop                    0                       # number of nop insts executed
system.switch_cpus1.iew.exec_rate            1.735105                       # Inst execution rate
system.switch_cpus1.iew.exec_refs            37487913                       # number of memory reference insts executed
system.switch_cpus1.iew.exec_stores           7786576                       # Number of stores executed
system.switch_cpus1.iew.exec_swp                    0                       # number of swp insts executed
system.switch_cpus1.iew.iewBlockCycles       35937844                       # Number of cycles IEW is blocking
system.switch_cpus1.iew.iewDispLoadInsts     34388726                       # Number of dispatched load instructions
system.switch_cpus1.iew.iewDispNonSpecInsts            0                       # Number of dispatched non-speculative instructions
system.switch_cpus1.iew.iewDispSquashedInsts        46685                       # Number of squashed instructions skipped by dispatch
system.switch_cpus1.iew.iewDispStoreInsts      8970857                       # Number of dispatched store instructions
system.switch_cpus1.iew.iewDispatchedInsts    172652714                       # Number of instructions dispatched to IQ
system.switch_cpus1.iew.iewExecLoadInsts     29701337                       # Number of load instructions executed
system.switch_cpus1.iew.iewExecSquashedInsts      3879615                       # Number of squashed instructions skipped in execute
system.switch_cpus1.iew.iewExecutedInsts    150755243                       # Number of executed instructions
system.switch_cpus1.iew.iewIQFullEvents        168062                       # Number of times the IQ has become full, causing a stall
system.switch_cpus1.iew.iewIdleCycles               0                       # Number of cycles IEW is idle
system.switch_cpus1.iew.iewLSQFullEvents      3378765                       # Number of times the LSQ has become full, causing a stall
system.switch_cpus1.iew.iewSquashCycles       1257918                       # Number of cycles IEW is squashing
system.switch_cpus1.iew.iewUnblockCycles      3684977                       # Number of cycles IEW is unblocking
system.switch_cpus1.iew.memOrderViolationEvents         5873                       # Number of memory order violations
system.switch_cpus1.iew.predictedNotTakenIncorrect       714312                       # Number of branches that were predicted not taken incorrectly
system.switch_cpus1.iew.predictedTakenIncorrect       583860                       # Number of branches that were predicted taken incorrectly
system.switch_cpus1.iew.wb_consumers        157771233                       # num instructions consuming a value
system.switch_cpus1.iew.wb_count            148867104                       # cumulative count of insts written-back
system.switch_cpus1.iew.wb_fanout            0.655003                       # average fanout of values written-back
system.switch_cpus1.iew.wb_producers        103340682                       # num instructions producing a value
system.switch_cpus1.iew.wb_rate              1.713374                       # insts written-back per cycle
system.switch_cpus1.iew.wb_sent             149882163                       # cumulative count of insts sent to commit
system.switch_cpus1.int_regfile_reads       215972756                       # number of integer regfile reads
system.switch_cpus1.int_regfile_writes      121123455                       # number of integer regfile writes
system.switch_cpus1.ipc                      0.628748                       # IPC: Instructions Per Cycle
system.switch_cpus1.ipc_total                0.628748                       # IPC: Total IPC of All Threads
system.switch_cpus1.iq.FU_type_0::No_OpClass        64636      0.04%      0.04% # Type of FU issued
system.switch_cpus1.iq.FU_type_0::IntAlu    114890026     74.30%     74.34% # Type of FU issued
system.switch_cpus1.iq.FU_type_0::IntMult       157999      0.10%     74.44% # Type of FU issued
system.switch_cpus1.iq.FU_type_0::IntDiv       400586      0.26%     74.70% # Type of FU issued
system.switch_cpus1.iq.FU_type_0::FloatAdd            0      0.00%     74.70% # Type of FU issued
system.switch_cpus1.iq.FU_type_0::FloatCmp            0      0.00%     74.70% # Type of FU issued
system.switch_cpus1.iq.FU_type_0::FloatCvt            0      0.00%     74.70% # Type of FU issued
system.switch_cpus1.iq.FU_type_0::FloatMult            0      0.00%     74.70% # Type of FU issued
system.switch_cpus1.iq.FU_type_0::FloatMultAcc            0      0.00%     74.70% # Type of FU issued
system.switch_cpus1.iq.FU_type_0::FloatDiv            0      0.00%     74.70% # Type of FU issued
system.switch_cpus1.iq.FU_type_0::FloatMisc            0      0.00%     74.70% # Type of FU issued
system.switch_cpus1.iq.FU_type_0::FloatSqrt            0      0.00%     74.70% # Type of FU issued
system.switch_cpus1.iq.FU_type_0::SimdAdd            0      0.00%     74.70% # Type of FU issued
system.switch_cpus1.iq.FU_type_0::SimdAddAcc            0      0.00%     74.70% # Type of FU issued
system.switch_cpus1.iq.FU_type_0::SimdAlu            0      0.00%     74.70% # Type of FU issued
system.switch_cpus1.iq.FU_type_0::SimdCmp            0      0.00%     74.70% # Type of FU issued
system.switch_cpus1.iq.FU_type_0::SimdCvt            0      0.00%     74.70% # Type of FU issued
system.switch_cpus1.iq.FU_type_0::SimdMisc            0      0.00%     74.70% # Type of FU issued
system.switch_cpus1.iq.FU_type_0::SimdMult            0      0.00%     74.70% # Type of FU issued
system.switch_cpus1.iq.FU_type_0::SimdMultAcc            0      0.00%     74.70% # Type of FU issued
system.switch_cpus1.iq.FU_type_0::SimdShift            0      0.00%     74.70% # Type of FU issued
system.switch_cpus1.iq.FU_type_0::SimdShiftAcc            0      0.00%     74.70% # Type of FU issued
system.switch_cpus1.iq.FU_type_0::SimdDiv            0      0.00%     74.70% # Type of FU issued
system.switch_cpus1.iq.FU_type_0::SimdSqrt            0      0.00%     74.70% # Type of FU issued
system.switch_cpus1.iq.FU_type_0::SimdFloatAdd            0      0.00%     74.70% # Type of FU issued
system.switch_cpus1.iq.FU_type_0::SimdFloatAlu            0      0.00%     74.70% # Type of FU issued
system.switch_cpus1.iq.FU_type_0::SimdFloatCmp            0      0.00%     74.70% # Type of FU issued
system.switch_cpus1.iq.FU_type_0::SimdFloatCvt            0      0.00%     74.70% # Type of FU issued
system.switch_cpus1.iq.FU_type_0::SimdFloatDiv            0      0.00%     74.70% # Type of FU issued
system.switch_cpus1.iq.FU_type_0::SimdFloatMisc            0      0.00%     74.70% # Type of FU issued
system.switch_cpus1.iq.FU_type_0::SimdFloatMult            0      0.00%     74.70% # Type of FU issued
system.switch_cpus1.iq.FU_type_0::SimdFloatMultAcc            0      0.00%     74.70% # Type of FU issued
system.switch_cpus1.iq.FU_type_0::SimdFloatSqrt            0      0.00%     74.70% # Type of FU issued
system.switch_cpus1.iq.FU_type_0::SimdReduceAdd            0      0.00%     74.70% # Type of FU issued
system.switch_cpus1.iq.FU_type_0::SimdReduceAlu            0      0.00%     74.70% # Type of FU issued
system.switch_cpus1.iq.FU_type_0::SimdReduceCmp            0      0.00%     74.70% # Type of FU issued
system.switch_cpus1.iq.FU_type_0::SimdFloatReduceAdd            0      0.00%     74.70% # Type of FU issued
system.switch_cpus1.iq.FU_type_0::SimdFloatReduceCmp            0      0.00%     74.70% # Type of FU issued
system.switch_cpus1.iq.FU_type_0::SimdAes            0      0.00%     74.70% # Type of FU issued
system.switch_cpus1.iq.FU_type_0::SimdAesMix            0      0.00%     74.70% # Type of FU issued
[...]
system.switch_cpus3.commit.numCommittedDist::stdev     3.369657                       # Number of insts commited each cycle
system.switch_cpus3.commit.numCommittedDist::underflows            0      0.00%      0.00% # Number of insts commited each cycle
system.switch_cpus3.commit.numCommittedDist::0     22686373     27.11%     27.11% # Number of insts commited each cycle
system.switch_cpus3.commit.numCommittedDist::1      9985557     11.93%     39.04% # Number of insts commited each cycle
system.switch_cpus3.commit.numCommittedDist::2      3871233      4.63%     43.67% # Number of insts commited each cycle
system.switch_cpus3.commit.numCommittedDist::3      6871276      8.21%     51.88% # Number of insts commited each cycle
system.switch_cpus3.commit.numCommittedDist::4      6881504      8.22%     60.10% # Number of insts commited each cycle
system.switch_cpus3.commit.numCommittedDist::5      1664078      1.99%     62.09% # Number of insts commited each cycle
system.switch_cpus3.commit.numCommittedDist::6      2049590      2.45%     64.54% # Number of insts commited each cycle
system.switch_cpus3.commit.numCommittedDist::7      1137552      1.36%     65.90% # Number of insts commited each cycle
system.switch_cpus3.commit.numCommittedDist::8     28539914     34.10%    100.00% # Number of insts commited each cycle
system.switch_cpus3.commit.numCommittedDist::overflows            0      0.00%    100.00% # Number of insts commited each cycle
system.switch_cpus3.commit.numCommittedDist::min_value            0                       # Number of insts commited each cycle
system.switch_cpus3.commit.numCommittedDist::max_value            8                       # Number of insts commited each cycle
system.switch_cpus3.commit.numCommittedDist::total     83687077                       # Number of insts commited each cycle
system.switch_cpus3.commit.instsCommitted    177886489                       # Number of instructions committed
system.switch_cpus3.commit.opsCommitted     322767973                       # Number of ops (including micro ops) committed
system.switch_cpus3.commit.memRefs           62603974                       # Number of memory references committed
system.switch_cpus3.commit.loads             44304701                       # Number of loads committed
system.switch_cpus3.commit.amos                     0                       # Number of atomic instructions committed
system.switch_cpus3.commit.membars                  0                       # Number of memory barriers committed
system.switch_cpus3.commit.branches          30829493                       # Number of branches committed
system.switch_cpus3.commit.vector                   0                       # Number of committed Vector instructions.
system.switch_cpus3.commit.floating         103149327                       # Number of committed floating point instructions.
system.switch_cpus3.commit.integer          247095594                       # Number of committed integer instructions.
system.switch_cpus3.commit.functionCalls      2446276                       # Number of function calls committed.
system.switch_cpus3.commit.committedInstType_0::No_OpClass        39726      0.01%      0.01% # Class of committed instruction
system.switch_cpus3.commit.committedInstType_0::IntAlu    200095870     61.99%     62.01% # Class of committed instruction
system.switch_cpus3.commit.committedInstType_0::IntMult            0      0.00%     62.01% # Class of committed instruction
system.switch_cpus3.commit.committedInstType_0::IntDiv            0      0.00%     62.01% # Class of committed instruction
system.switch_cpus3.commit.committedInstType_0::FloatAdd     25012924      7.75%     69.76% # Class of committed instruction
system.switch_cpus3.commit.committedInstType_0::FloatCmp            0      0.00%     69.76% # Class of committed instruction
system.switch_cpus3.commit.committedInstType_0::FloatCvt            0      0.00%     69.76% # Class of committed instruction
system.switch_cpus3.commit.committedInstType_0::FloatMult            0      0.00%     69.76% # Class of committed instruction
system.switch_cpus3.commit.committedInstType_0::FloatMultAcc            0      0.00%     69.76% # Class of committed instruction
system.switch_cpus3.commit.committedInstType_0::FloatDiv            0      0.00%     69.76% # Class of committed instruction
system.switch_cpus3.commit.committedInstType_0::FloatMisc            0      0.00%     69.76% # Class of committed instruction
system.switch_cpus3.commit.committedInstType_0::FloatSqrt            0      0.00%     69.76% # Class of committed instruction
system.switch_cpus3.commit.committedInstType_0::SimdAdd            0      0.00%     69.76% # Class of committed instruction
system.switch_cpus3.commit.committedInstType_0::SimdAddAcc            0      0.00%     69.76% # Class of committed instruction
system.switch_cpus3.commit.committedInstType_0::SimdAlu      4022078      1.25%     71.00% # Class of committed instruction
system.switch_cpus3.commit.committedInstType_0::SimdCmp            0      0.00%     71.00% # Class of committed instruction
system.switch_cpus3.commit.committedInstType_0::SimdCvt            0      0.00%     71.00% # Class of committed instruction
system.switch_cpus3.commit.committedInstType_0::SimdMisc      1294948      0.40%     71.40% # Class of committed instruction
system.switch_cpus3.commit.committedInstType_0::SimdMult            0      0.00%     71.40% # Class of committed instruction
system.switch_cpus3.commit.committedInstType_0::SimdMultAcc            0      0.00%     71.40% # Class of committed instruction
system.switch_cpus3.commit.committedInstType_0::SimdShift            0      0.00%     71.40% # Class of committed instruction
system.switch_cpus3.commit.committedInstType_0::SimdShiftAcc            0      0.00%     71.40% # Class of committed instruction
system.switch_cpus3.commit.committedInstType_0::SimdDiv            0      0.00%     71.40% # Class of committed instruction
system.switch_cpus3.commit.committedInstType_0::SimdSqrt            0      0.00%     71.40% # Class of committed instruction
system.switch_cpus3.commit.committedInstType_0::SimdFloatAdd     10122603      3.14%     74.54% # Class of committed instruction
system.switch_cpus3.commit.committedInstType_0::SimdFloatAlu            0      0.00%     74.54% # Class of committed instruction
system.switch_cpus3.commit.committedInstType_0::SimdFloatCmp          130      0.00%     74.54% # Class of committed instruction
system.switch_cpus3.commit.committedInstType_0::SimdFloatCvt     12348129      3.83%     78.36% # Class of committed instruction
system.switch_cpus3.commit.committedInstType_0::SimdFloatDiv      1085184      0.34%     78.70% # Class of committed instruction
system.switch_cpus3.commit.committedInstType_0::SimdFloatMisc            0      0.00%     78.70% # Class of committed instruction
system.switch_cpus3.commit.committedInstType_0::SimdFloatMult      5925370      1.84%     80.54% # Class of committed instruction
system.switch_cpus3.commit.committedInstType_0::SimdFloatMultAcc            0      0.00%     80.54% # Class of committed instruction
system.switch_cpus3.commit.committedInstType_0::SimdFloatSqrt       217037      0.07%     80.60% # Class of committed instruction
system.switch_cpus3.commit.committedInstType_0::SimdReduceAdd            0      0.00%     80.60% # Class of committed instruction
system.switch_cpus3.commit.committedInstType_0::SimdReduceAlu            0      0.00%     80.60% # Class of committed instruction
system.switch_cpus3.commit.committedInstType_0::SimdReduceCmp            0      0.00%     80.60% # Class of committed instruction
system.switch_cpus3.commit.committedInstType_0::SimdFloatReduceAdd            0      0.00%     80.60% # Class of committed instruction
system.switch_cpus3.commit.committedInstType_0::SimdFloatReduceCmp            0      0.00%     80.60% # Class of committed instruction
system.switch_cpus3.commit.committedInstType_0::SimdAes            0      0.00%     80.60% # Class of committed instruction
system.switch_cpus3.commit.committedInstType_0::SimdAesMix            0      0.00%     80.60% # Class of committed instruction
system.switch_cpus3.commit.committedInstType_0::SimdSha1Hash            0      0.00%     80.60% # Class of committed instruction
system.switch_cpus3.commit.committedInstType_0::SimdSha1Hash2            0      0.00%     80.60% # Class of committed instruction
system.switch_cpus3.commit.committedInstType_0::SimdSha256Hash            0      0.00%     80.60% # Class of committed instruction
system.switch_cpus3.commit.committedInstType_0::SimdSha256Hash2            0      0.00%     80.60% # Class of committed instruction
system.switch_cpus3.commit.committedInstType_0::SimdShaSigma2            0      0.00%     80.60% # Class of committed instruction
system.switch_cpus3.commit.committedInstType_0::SimdShaSigma3            0      0.00%     80.60% # Class of committed instruction
system.switch_cpus3.commit.committedInstType_0::SimdPredAlu            0      0.00%     80.60% # Class of committed instruction
system.switch_cpus3.commit.committedInstType_0::MemRead     24148896      7.48%     88.09% # Class of committed instruction
system.switch_cpus3.commit.committedInstType_0::MemWrite     12233352      3.79%     91.88% # Class of committed instruction
system.switch_cpus3.commit.committedInstType_0::FloatMemRead     20155805      6.24%     98.12% # Class of committed instruction
system.switch_cpus3.commit.committedInstType_0::FloatMemWrite      6065921      1.88%    100.00% # Class of committed instruction
system.switch_cpus3.commit.committedInstType_0::IprAccess            0      0.00%    100.00% # Class of committed instruction
system.switch_cpus3.commit.committedInstType_0::InstPrefetch            0      0.00%    100.00% # Class of committed instruction
system.switch_cpus3.commit.committedInstType_0::total    322767973                       # Class of committed instruction
system.switch_cpus3.commit.commitEligibleSamples     28539914                       # number cycles where commit BW limit reached
system.switch_cpus3.decode.idleCycles         5048231                       # Number of cycles decode is idle
system.switch_cpus3.decode.blockedCycles     25971011                       # Number of cycles decode is blocked
system.switch_cpus3.decode.runCycles         50427486                       # Number of cycles decode is running
system.switch_cpus3.decode.unblockCycles      4859202                       # Number of cycles decode is unblocking
system.switch_cpus3.decode.squashCycles        502014                       # Number of cycles decode is squashing
system.switch_cpus3.decode.branchResolved     17999393                       # Number of times decode resolved a  branch
system.switch_cpus3.decode.branchMispred          289                       # Number of times decode detected a branch misprediction
system.switch_cpus3.decode.decodedInsts     354472176                       # Number of instructions handled by decode
system.switch_cpus3.decode.squashedInsts          442                       # Number of squashed instructions handled by decode
system.switch_cpus3.dtb.rdAccesses           45563422                       # TLB accesses on read requests
system.switch_cpus3.dtb.wrAccesses           18476480                       # TLB accesses on write requests
system.switch_cpus3.dtb.rdMisses                28569                       # TLB misses on read requests
system.switch_cpus3.dtb.wrMisses                  274                       # TLB misses on write requests
system.switch_cpus3.dtb.walker.power_state.pwrStateResidencyTicks::UNDEFINED 15680189916864                       # Cumulative time (in ticks) in various power states
system.switch_cpus3.fetch.icacheStallCycles       402566                       # Number of cycles fetch is stalled on an Icache miss
system.switch_cpus3.fetch.insts             198928100                       # Number of instructions fetch has processed
system.switch_cpus3.fetch.branches           35542166                       # Number of branches that fetch encountered
system.switch_cpus3.fetch.predictedBranches     22430416                       # Number of branches that fetch has predicted taken
system.switch_cpus3.fetch.cycles             85903085                       # Number of cycles fetch has run and was not squashing or blocked
system.switch_cpus3.fetch.squashCycles        1004602                       # Number of cycles fetch has spent squashing
system.switch_cpus3.fetch.cacheLines         29799279                       # Number of cache lines fetched
system.switch_cpus3.fetch.icacheSquashes          194                       # Number of outstanding Icache misses that were squashed
system.switch_cpus3.fetch.nisnDist::samples     86807952                       # Number of instructions fetched each cycle (Total)
system.switch_cpus3.fetch.nisnDist::mean     4.138630                       # Number of instructions fetched each cycle (Total)
system.switch_cpus3.fetch.nisnDist::stdev     3.383907                       # Number of instructions fetched each cycle (Total)
system.switch_cpus3.fetch.nisnDist::underflows            0      0.00%      0.00% # Number of instructions fetched each cycle (Total)
system.switch_cpus3.fetch.nisnDist::0        25003772     28.80%     28.80% # Number of instructions fetched each cycle (Total)
system.switch_cpus3.fetch.nisnDist::1         4188611      4.83%     33.63% # Number of instructions fetched each cycle (Total)
system.switch_cpus3.fetch.nisnDist::2         5065372      5.84%     39.46% # Number of instructions fetched each cycle (Total)
system.switch_cpus3.fetch.nisnDist::3         5946535      6.85%     46.31% # Number of instructions fetched each cycle (Total)
system.switch_cpus3.fetch.nisnDist::4         6511701      7.50%     53.82% # Number of instructions fetched each cycle (Total)
system.switch_cpus3.fetch.nisnDist::5         3705542      4.27%     58.08% # Number of instructions fetched each cycle (Total)
system.switch_cpus3.fetch.nisnDist::6         2874199      3.31%     61.39% # Number of instructions fetched each cycle (Total)
system.switch_cpus3.fetch.nisnDist::7         2810404      3.24%     64.63% # Number of instructions fetched each cycle (Total)
system.switch_cpus3.fetch.nisnDist::8        30701816     35.37%    100.00% # Number of instructions fetched each cycle (Total)
system.switch_cpus3.fetch.nisnDist::overflows            0      0.00%    100.00% # Number of instructions fetched each cycle (Total)
system.switch_cpus3.fetch.nisnDist::min_value            0                       # Number of instructions fetched each cycle (Total)
system.switch_cpus3.fetch.nisnDist::max_value            8                       # Number of instructions fetched each cycle (Total)
system.switch_cpus3.fetch.nisnDist::total     86807952                       # Number of instructions fetched each cycle (Total)
system.switch_cpus3.fetch.branchRate         0.409070                       # Number of branch fetches per cycle
system.switch_cpus3.fetch.rate               2.289547                       # Number of inst fetches per cycle
system.switch_cpus3.itb.rdAccesses                  0                       # TLB accesses on read requests
system.switch_cpus3.itb.wrAccesses           29799279                       # TLB accesses on write requests
system.switch_cpus3.itb.rdMisses                    0                       # TLB misses on read requests
system.switch_cpus3.itb.wrMisses                   26                       # TLB misses on write requests
system.switch_cpus3.itb.walker.power_state.pwrStateResidencyTicks::UNDEFINED 15680189916864                       # Cumulative time (in ticks) in various power states
system.switch_cpus3.lsq0.forwLoads            9843659                       # Number of loads that had data forwarded from stores
system.switch_cpus3.lsq0.squashedLoads        2313027                       # Number of loads squashed
system.switch_cpus3.lsq0.ignoredResponses           14                       # Number of memory responses ignored because the instruction is squashed
system.switch_cpus3.lsq0.memOrderViolation         5534                       # Number of memory ordering violations
system.switch_cpus3.lsq0.squashedStores        992227                       # Number of stores squashed
system.switch_cpus3.lsq0.rescheduledLoads          999                       # Number of loads that were rescheduled
system.switch_cpus3.lsq0.blockedByCache             1                       # Number of times an access to memory failed due to the cache being blocked
system.switch_cpus3.power_state.pwrStateResidencyTicks::OFF  28932839199                       # Cumulative time (in ticks) in various power states
system.switch_cpus3.rename.squashCycles        502014                       # Number of cycles rename is squashing
system.switch_cpus3.rename.idleCycles         7077393                       # Number of cycles rename is idle
system.switch_cpus3.rename.blockCycles       11456572                       # Number of cycles rename is blocking
system.switch_cpus3.rename.serializeStallCycles          154                       # count of cycles rename stalledfor serializing inst
system.switch_cpus3.rename.runCycles         53113239                       # Number of cycles rename is running
system.switch_cpus3.rename.unblockCycles     14658561                       # Number of cycles rename is unblocking
system.switch_cpus3.rename.renamedInsts     351657324                       # Number of instructions processed by rename
system.switch_cpus3.rename.ROBFullEvents        66343                       # Number of times rename has blocked due to ROB full
system.switch_cpus3.rename.IQFullEvents       4621862                       # Number of times rename has blocked due to IQ full
system.switch_cpus3.rename.LQFullEvents       8766873                       # Number of times rename has blocked due to LQ full
system.switch_cpus3.rename.SQFullEvents         81397                       # Number of times rename has blocked due to SQ full
system.switch_cpus3.rename.renamedOperands    386203552                       # Number of destination operands rename has renamed
system.switch_cpus3.rename.lookups          875652724                       # Number of register rename lookups that rename has made
system.switch_cpus3.rename.intLookups       389611250                       # Number of integer rename lookups
system.switch_cpus3.rename.fpLookups        132253228                       # Number of floating rename lookups
system.switch_cpus3.rename.committedMaps    350695524                       # Number of HB maps that are committed
system.switch_cpus3.rename.undoneMaps        35507866                       # Number of HB maps that are undone due to squashing
system.switch_cpus3.rename.serializing             16                       # count of serializing insts renamed
system.switch_cpus3.rename.tempSerializing           16                       # count of temporary serializing insts renamed
system.switch_cpus3.rename.skidInsts         18773401                       # count of insts added to the skid buffer
system.switch_cpus3.rob.reads               401011788                       # The number of ROB reads
system.switch_cpus3.rob.writes              694858329                       # The number of ROB writes
system.switch_cpus3.thread0.numInsts        177886489                       # Number of Instructions committed
system.switch_cpus3.thread0.numOps          322767973                       # Number of Ops committed
system.switch_cpus3.thread0.numMemRefs              0                       # Number of Memory References
system.voltage_domain.voltage                       1                       # Voltage in Volts

---------- End Simulation Statistics   ----------
