
---------- Begin Simulation Statistics ----------
final_tick                               14067252641025                       # Number of ticks from beginning of simulation (restored from checkpoints and never reset)
host_inst_rate                                 143034                       # Simulator instruction rate (inst/s)
host_mem_usage                               17196544                       # Number of bytes of host memory used
host_op_rate                                   230432                       # Simulator op (including micro ops) rate (op/s)
host_seconds                                  4633.34                       # Real time elapsed on the host
host_tick_rate                                9555471                       # Simulator tick rate (ticks/s)
sim_freq                                 1000000000000                       # Frequency of simulated ticks
sim_insts                                   662724391                       # Number of instructions simulated
sim_ops                                    1067668365                       # Number of ops (including micro ops) simulated
sim_seconds                                  0.044274                       # Number of seconds simulated
sim_ticks                                 44273780568                       # Number of ticks simulated
system.cpu0.committedInsts                         17                       # Number of instructions committed
system.cpu0.committedOps                           21                       # Number of ops (including micro ops) committed
system.cpu0.idle_fraction                           0                       # Percentage of idle cycles
system.cpu0.l2bus.snoop_filter.hit_multi_requests            2                       # Number of requests hitting in the snoop filter with multiple (>1) holders of the requested data.
system.cpu0.l2bus.snoop_filter.hit_multi_snoops            0                       # Number of snoops hitting in the snoop filter with multiple (>1) holders of the requested data.
system.cpu0.l2bus.snoop_filter.hit_single_requests     12505838                       # Number of requests hitting in the snoop filter with a single holder of the requested data.
system.cpu0.l2bus.snoop_filter.hit_single_snoops         9794                       # Number of snoops hitting in the snoop filter with a single holder of the requested data.
system.cpu0.l2bus.snoop_filter.tot_requests     25012697                       # Total number of requests made to the snoop filter.
system.cpu0.l2bus.snoop_filter.tot_snoops         9794                       # Total number of snoops made to the snoop filter.
system.cpu0.mmucache.mmubus.snoop_filter.hit_multi_requests            0                       # Number of requests hitting in the snoop filter with multiple (>1) holders of the requested data.
system.cpu0.mmucache.mmubus.snoop_filter.hit_multi_snoops            0                       # Number of snoops hitting in the snoop filter with multiple (>1) holders of the requested data.
system.cpu0.mmucache.mmubus.snoop_filter.hit_single_requests            0                       # Number of requests hitting in the snoop filter with a single holder of the requested data.
system.cpu0.mmucache.mmubus.snoop_filter.hit_single_snoops            0                       # Number of snoops hitting in the snoop filter with a single holder of the requested data.
system.cpu0.mmucache.mmubus.snoop_filter.tot_requests            0                       # Total number of requests made to the snoop filter.
system.cpu0.mmucache.mmubus.snoop_filter.tot_snoops            0                       # Total number of snoops made to the snoop filter.
system.cpu0.not_idle_fraction                       1                       # Percentage of non-idle cycles
system.cpu0.numCycles                              32                       # number of cpu cycles simulated
system.cpu0.numWorkItemsCompleted                   0                       # number of work items this cpu completed
system.cpu0.numWorkItemsStarted                     0                       # number of work items this cpu started
system.cpu0.num_busy_cycles                        32                       # Number of busy cycles
system.cpu0.num_conditional_control_insts            0                       # number of instructions that are conditional controls
system.cpu0.num_fp_alu_accesses                    16                       # Number of float alu accesses
system.cpu0.num_fp_insts                           16                       # number of float instructions
system.cpu0.num_fp_register_reads                  28                       # number of times the floating registers were read
system.cpu0.num_fp_register_writes                 15                       # number of times the floating registers were written
system.cpu0.num_func_calls                          0                       # number of times a function call or return occured
system.cpu0.num_idle_cycles                         0                       # Number of idle cycles
system.cpu0.num_int_alu_accesses                   12                       # Number of integer alu accesses
system.cpu0.num_int_insts                          12                       # number of integer instructions
system.cpu0.num_int_register_reads                 30                       # number of times the integer registers were read
system.cpu0.num_int_register_writes                 5                       # number of times the integer registers were written
system.cpu0.num_load_insts                          8                       # Number of load instructions
system.cpu0.num_mem_refs                            9                       # number of memory refs
system.cpu0.num_store_insts                         1                       # Number of store instructions
system.cpu0.num_vec_alu_accesses                    0                       # Number of vector alu accesses
system.cpu0.num_vec_insts                           0                       # number of vector instructions
system.cpu0.num_vec_register_reads                  0                       # number of times the vector registers were read
system.cpu0.num_vec_register_writes                 0                       # number of times the vector registers were written
system.cpu0.op_class::No_OpClass                    0      0.00%      0.00% # Class of executed instruction
system.cpu0.op_class::IntAlu                        3     14.29%     14.29% # Class of executed instruction
system.cpu0.op_class::IntMult                       0      0.00%     14.29% # Class of executed instruction
system.cpu0.op_class::IntDiv                        0      0.00%     14.29% # Class of executed instruction
system.cpu0.op_class::FloatAdd                      0      0.00%     14.29% # Class of executed instruction
system.cpu0.op_class::FloatCmp                      0      0.00%     14.29% # Class of executed instruction
system.cpu0.op_class::FloatCvt                      0      0.00%     14.29% # Class of executed instruction
system.cpu0.op_class::FloatMult                     0      0.00%     14.29% # Class of executed instruction
system.cpu0.op_class::FloatMultAcc                  0      0.00%     14.29% # Class of executed instruction
system.cpu0.op_class::FloatDiv                      0      0.00%     14.29% # Class of executed instruction
system.cpu0.op_class::FloatMisc                     0      0.00%     14.29% # Class of executed instruction
system.cpu0.op_class::FloatSqrt                     0      0.00%     14.29% # Class of executed instruction
system.cpu0.op_class::SimdAdd                       0      0.00%     14.29% # Class of executed instruction
system.cpu0.op_class::SimdAddAcc                    0      0.00%     14.29% # Class of executed instruction
system.cpu0.op_class::SimdAlu                       0      0.00%     14.29% # Class of executed instruction
system.cpu0.op_class::SimdCmp                       0      0.00%     14.29% # Class of executed instruction
system.cpu0.op_class::SimdCvt                       0      0.00%     14.29% # Class of executed instruction
system.cpu0.op_class::SimdMisc                      0      0.00%     14.29% # Class of executed instruction
system.cpu0.op_class::SimdMult                      0      0.00%     14.29% # Class of executed instruction
system.cpu0.op_class::SimdMultAcc                   0      0.00%     14.29% # Class of executed instruction
system.cpu0.op_class::SimdShift                     0      0.00%     14.29% # Class of executed instruction
system.cpu0.op_class::SimdShiftAcc                  0      0.00%     14.29% # Class of executed instruction
system.cpu0.op_class::SimdDiv                       0      0.00%     14.29% # Class of executed instruction
system.cpu0.op_class::SimdSqrt                      0      0.00%     14.29% # Class of executed instruction
system.cpu0.op_class::SimdFloatAdd                  4     19.05%     33.33% # Class of executed instruction
system.cpu0.op_class::SimdFloatAlu                  0      0.00%     33.33% # Class of executed instruction
system.cpu0.op_class::SimdFloatCmp                  0      0.00%     33.33% # Class of executed instruction
system.cpu0.op_class::SimdFloatCvt                  0      0.00%     33.33% # Class of executed instruction
system.cpu0.op_class::SimdFloatDiv                  0      0.00%     33.33% # Class of executed instruction
system.cpu0.op_class::SimdFloatMisc                 0      0.00%     33.33% # Class of executed instruction
system.cpu0.op_class::SimdFloatMult                 5     23.81%     57.14% # Class of executed instruction
system.cpu0.op_class::SimdFloatMultAcc              0      0.00%     57.14% # Class of executed instruction
system.cpu0.op_class::SimdFloatSqrt                 0      0.00%     57.14% # Class of executed instruction
system.cpu0.op_class::SimdReduceAdd                 0      0.00%     57.14% # Class of executed instruction
system.cpu0.op_class::SimdReduceAlu                 0      0.00%     57.14% # Class of executed instruction
system.cpu0.op_class::SimdReduceCmp                 0      0.00%     57.14% # Class of executed instruction
system.cpu0.op_class::SimdFloatReduceAdd            0      0.00%     57.14% # Class of executed instruction
system.cpu0.op_class::SimdFloatReduceCmp            0      0.00%     57.14% # Class of executed instruction
system.cpu0.op_class::SimdAes                       0      0.00%     57.14% # Class of executed instruction
system.cpu0.op_class::SimdAesMix                    0      0.00%     57.14% # Class of executed instruction
system.cpu0.op_class::SimdSha1Hash                  0      0.00%     57.14% # Class of executed instruction
system.cpu0.op_class::SimdSha1Hash2                 0      0.00%     57.14% # Class of executed instruction
system.cpu0.op_class::SimdSha256Hash                0      0.00%     57.14% # Class of executed instruction
system.cpu0.op_class::SimdSha256Hash2               0      0.00%     57.14% # Class of executed instruction
system.cpu0.op_class::SimdShaSigma2                 0      0.00%     57.14% # Class of executed instruction
system.cpu0.op_class::SimdShaSigma3                 0      0.00%     57.14% # Class of executed instruction
system.cpu0.op_class::SimdPredAlu                   0      0.00%     57.14% # Class of executed instruction
system.cpu0.op_class::MemRead                       2      9.52%     66.67% # Class of executed instruction
system.cpu0.op_class::MemWrite                      0      0.00%     66.67% # Class of executed instruction
system.cpu0.op_class::FloatMemRead                  6     28.57%     95.24% # Class of executed instruction
system.cpu0.op_class::FloatMemWrite                 1      4.76%    100.00% # Class of executed instruction
system.cpu0.op_class::IprAccess                     0      0.00%    100.00% # Class of executed instruction
system.cpu0.op_class::InstPrefetch                  0      0.00%    100.00% # Class of executed instruction
system.cpu0.op_class::total                        21                       # Class of executed instruction
system.cpu0.workload.numSyscalls                    0                       # Number of system calls
system.cpu1.Branches                                3                       # Number of branches fetched
system.cpu1.committedInsts                         16                       # Number of instructions committed
system.cpu1.committedOps                           26                       # Number of ops (including micro ops) committed
system.cpu1.idle_fraction                           0                       # Percentage of idle cycles
system.cpu1.l2bus.snoop_filter.hit_multi_requests           84                       # Number of requests hitting in the snoop filter with multiple (>1) holders of the requested data.
system.cpu1.l2bus.snoop_filter.hit_multi_snoops            0                       # Number of snoops hitting in the snoop filter with multiple (>1) holders of the requested data.
system.cpu1.l2bus.snoop_filter.hit_single_requests      3272196                       # Number of requests hitting in the snoop filter with a single holder of the requested data.
system.cpu1.l2bus.snoop_filter.hit_single_snoops          357                       # Number of snoops hitting in the snoop filter with a single holder of the requested data.
system.cpu1.l2bus.snoop_filter.tot_requests      6519318                       # Total number of requests made to the snoop filter.
system.cpu1.l2bus.snoop_filter.tot_snoops          357                       # Total number of snoops made to the snoop filter.
system.cpu1.mmucache.mmubus.snoop_filter.hit_multi_requests            0                       # Number of requests hitting in the snoop filter with multiple (>1) holders of the requested data.
system.cpu1.mmucache.mmubus.snoop_filter.hit_multi_snoops            0                       # Number of snoops hitting in the snoop filter with multiple (>1) holders of the requested data.
system.cpu1.mmucache.mmubus.snoop_filter.hit_single_requests            0                       # Number of requests hitting in the snoop filter with a single holder of the requested data.
system.cpu1.mmucache.mmubus.snoop_filter.hit_single_snoops            0                       # Number of snoops hitting in the snoop filter with a single holder of the requested data.
system.cpu1.mmucache.mmubus.snoop_filter.tot_requests            0                       # Total number of requests made to the snoop filter.
system.cpu1.mmucache.mmubus.snoop_filter.tot_snoops            0                       # Total number of snoops made to the snoop filter.
system.cpu1.not_idle_fraction                       1                       # Percentage of non-idle cycles
system.cpu1.numCycles                              30                       # number of cpu cycles simulated
system.cpu1.numWorkItemsCompleted                   0                       # number of work items this cpu completed
system.cpu1.numWorkItemsStarted                     0                       # number of work items this cpu started
system.cpu1.num_busy_cycles                        30                       # Number of busy cycles
system.cpu1.num_cc_register_reads                  18                       # number of times the CC registers were read
system.cpu1.num_cc_register_writes                 12                       # number of times the CC registers were written
system.cpu1.num_conditional_control_insts            3                       # number of instructions that are conditional controls
system.cpu1.num_fp_alu_accesses                     0                       # Number of float alu accesses
system.cpu1.num_fp_insts                            0                       # number of float instructions
system.cpu1.num_fp_register_reads                   0                       # number of times the floating registers were read
system.cpu1.num_fp_register_writes                  0                       # number of times the floating registers were written
system.cpu1.num_func_calls                          0                       # number of times a function call or return occured
system.cpu1.num_idle_cycles                         0                       # Number of idle cycles
system.cpu1.num_int_alu_accesses                   26                       # Number of integer alu accesses
system.cpu1.num_int_insts                          26                       # number of integer instructions
system.cpu1.num_int_register_reads                 54                       # number of times the integer registers were read
system.cpu1.num_int_register_writes                23                       # number of times the integer registers were written
system.cpu1.num_load_insts                          7                       # Number of load instructions
system.cpu1.num_mem_refs                            7                       # number of memory refs
system.cpu1.num_store_insts                         0                       # Number of store instructions
system.cpu1.num_vec_alu_accesses                    0                       # Number of vector alu accesses
system.cpu1.num_vec_insts                           0                       # number of vector instructions
system.cpu1.num_vec_register_reads                  0                       # number of times the vector registers were read
system.cpu1.num_vec_register_writes                 0                       # number of times the vector registers were written
system.cpu1.op_class::No_OpClass                    0      0.00%      0.00% # Class of executed instruction
system.cpu1.op_class::IntAlu                       19     73.08%     73.08% # Class of executed instruction
system.cpu1.op_class::IntMult                       0      0.00%     73.08% # Class of executed instruction
system.cpu1.op_class::IntDiv                        0      0.00%     73.08% # Class of executed instruction
system.cpu1.op_class::FloatAdd                      0      0.00%     73.08% # Class of executed instruction
system.cpu1.op_class::FloatCmp                      0      0.00%     73.08% # Class of executed instruction
system.cpu1.op_class::FloatCvt                      0      0.00%     73.08% # Class of executed instruction
system.cpu1.op_class::FloatMult                     0      0.00%     73.08% # Class of executed instruction
system.cpu1.op_class::FloatMultAcc                  0      0.00%     73.08% # Class of executed instruction
system.cpu1.op_class::FloatDiv                      0      0.00%     73.08% # Class of executed instruction
system.cpu1.op_class::FloatMisc                     0      0.00%     73.08% # Class of executed instruction
system.cpu1.op_class::FloatSqrt                     0      0.00%     73.08% # Class of executed instruction
system.cpu1.op_class::SimdAdd                       0      0.00%     73.08% # Class of executed instruction
system.cpu1.op_class::SimdAddAcc                    0      0.00%     73.08% # Class of executed instruction
system.cpu1.op_class::SimdAlu                       0      0.00%     73.08% # Class of executed instruction
system.cpu1.op_class::SimdCmp                       0      0.00%     73.08% # Class of executed instruction
system.cpu1.op_class::SimdCvt                       0      0.00%     73.08% # Class of executed instruction
system.cpu1.op_class::SimdMisc                      0      0.00%     73.08% # Class of executed instruction
system.cpu1.op_class::SimdMult                      0      0.00%     73.08% # Class of executed instruction
system.cpu1.op_class::SimdMultAcc                   0      0.00%     73.08% # Class of executed instruction
system.cpu1.op_class::SimdShift                     0      0.00%     73.08% # Class of executed instruction
system.cpu1.op_class::SimdShiftAcc                  0      0.00%     73.08% # Class of executed instruction
system.cpu1.op_class::SimdDiv                       0      0.00%     73.08% # Class of executed instruction
system.cpu1.op_class::SimdSqrt                      0      0.00%     73.08% # Class of executed instruction
system.cpu1.op_class::SimdFloatAdd                  0      0.00%     73.08% # Class of executed instruction
system.cpu1.op_class::SimdFloatAlu                  0      0.00%     73.08% # Class of executed instruction
system.cpu1.op_class::SimdFloatCmp                  0      0.00%     73.08% # Class of executed instruction
system.cpu1.op_class::SimdFloatCvt                  0      0.00%     73.08% # Class of executed instruction
system.cpu1.op_class::SimdFloatDiv                  0      0.00%     73.08% # Class of executed instruction
system.cpu1.op_class::SimdFloatMisc                 0      0.00%     73.08% # Class of executed instruction
system.cpu1.op_class::SimdFloatMult                 0      0.00%     73.08% # Class of executed instruction
system.cpu1.op_class::SimdFloatMultAcc              0      0.00%     73.08% # Class of executed instruction
system.cpu1.op_class::SimdFloatSqrt                 0      0.00%     73.08% # Class of executed instruction
system.cpu1.op_class::SimdReduceAdd                 0      0.00%     73.08% # Class of executed instruction
system.cpu1.op_class::SimdReduceAlu                 0      0.00%     73.08% # Class of executed instruction
system.cpu1.op_class::SimdReduceCmp                 0      0.00%     73.08% # Class of executed instruction
system.cpu1.op_class::SimdFloatReduceAdd            0      0.00%     73.08% # Class of executed instruction
system.cpu1.op_class::SimdFloatReduceCmp            0      0.00%     73.08% # Class of executed instruction
system.cpu1.op_class::SimdAes                       0      0.00%     73.08% # Class of executed instruction
system.cpu1.op_class::SimdAesMix                    0      0.00%     73.08% # Class of executed instruction
system.cpu1.op_class::SimdSha1Hash                  0      0.00%     73.08% # Class of executed instruction
system.cpu1.op_class::SimdSha1Hash2                 0      0.00%     73.08% # Class of executed instruction
system.cpu1.op_class::SimdSha256Hash                0      0.00%     73.08% # Class of executed instruction
system.cpu1.op_class::SimdSha256Hash2               0      0.00%     73.08% # Class of executed instruction
system.cpu1.op_class::SimdShaSigma2                 0      0.00%     73.08% # Class of executed instruction
system.cpu1.op_class::SimdShaSigma3                 0      0.00%     73.08% # Class of executed instruction
system.cpu1.op_class::SimdPredAlu                   0      0.00%     73.08% # Class of executed instruction
system.cpu1.op_class::MemRead                       7     26.92%    100.00% # Class of executed instruction
system.cpu1.op_class::MemWrite                      0      0.00%    100.00% # Class of executed instruction
system.cpu1.op_class::FloatMemRead                  0      0.00%    100.00% # Class of executed instruction
system.cpu1.op_class::FloatMemWrite                 0      0.00%    100.00% # Class of executed instruction
system.cpu1.op_class::IprAccess                     0      0.00%    100.00% # Class of executed instruction
system.cpu1.op_class::InstPrefetch                  0      0.00%    100.00% # Class of executed instruction
system.cpu1.op_class::total                        26                       # Class of executed instruction
system.cpu1.workload.numSyscalls                    0                       # Number of system calls
system.cpu2.committedInsts                         18                       # Number of instructions committed
system.cpu2.committedOps                           28                       # Number of ops (including micro ops) committed
system.cpu2.idle_fraction                           0                       # Percentage of idle cycles
system.cpu2.l2bus.snoop_filter.hit_multi_requests          108                       # Number of requests hitting in the snoop filter with multiple (>1) holders of the requested data.
system.cpu2.l2bus.snoop_filter.hit_multi_snoops            0                       # Number of snoops hitting in the snoop filter with multiple (>1) holders of the requested data.
system.cpu2.l2bus.snoop_filter.hit_single_requests       140928                       # Number of requests hitting in the snoop filter with a single holder of the requested data.
system.cpu2.l2bus.snoop_filter.hit_single_snoops          671                       # Number of snoops hitting in the snoop filter with a single holder of the requested data.
system.cpu2.l2bus.snoop_filter.tot_requests       282739                       # Total number of requests made to the snoop filter.
system.cpu2.l2bus.snoop_filter.tot_snoops          671                       # Total number of snoops made to the snoop filter.
system.cpu2.mmucache.mmubus.snoop_filter.hit_multi_requests            0                       # Number of requests hitting in the snoop filter with multiple (>1) holders of the requested data.
system.cpu2.mmucache.mmubus.snoop_filter.hit_multi_snoops            0                       # Number of snoops hitting in the snoop filter with multiple (>1) holders of the requested data.
system.cpu2.mmucache.mmubus.snoop_filter.hit_single_requests            0                       # Number of requests hitting in the snoop filter with a single holder of the requested data.
system.cpu2.mmucache.mmubus.snoop_filter.hit_single_snoops            0                       # Number of snoops hitting in the snoop filter with a single holder of the requested data.
system.cpu2.mmucache.mmubus.snoop_filter.tot_requests            0                       # Total number of requests made to the snoop filter.
system.cpu2.mmucache.mmubus.snoop_filter.tot_snoops            0                       # Total number of snoops made to the snoop filter.
system.cpu2.not_idle_fraction                       1                       # Percentage of non-idle cycles
system.cpu2.numCycles                              30                       # number of cpu cycles simulated
system.cpu2.numWorkItemsCompleted                   0                       # number of work items this cpu completed
system.cpu2.numWorkItemsStarted                     0                       # number of work items this cpu started
system.cpu2.num_busy_cycles                        30                       # Number of busy cycles
system.cpu2.num_cc_register_reads                  14                       # number of times the CC registers were read
system.cpu2.num_cc_register_writes                 16                       # number of times the CC registers were written
system.cpu2.num_conditional_control_insts            0                       # number of instructions that are conditional controls
system.cpu2.num_fp_alu_accesses                     0                       # Number of float alu accesses
system.cpu2.num_fp_insts                            0                       # number of float instructions
system.cpu2.num_fp_register_reads                   0                       # number of times the floating registers were read
system.cpu2.num_fp_register_writes                  0                       # number of times the floating registers were written
system.cpu2.num_func_calls                          0                       # number of times a function call or return occured
system.cpu2.num_idle_cycles                         0                       # Number of idle cycles
system.cpu2.num_int_alu_accesses                   28                       # Number of integer alu accesses
system.cpu2.num_int_insts                          28                       # number of integer instructions
system.cpu2.num_int_register_reads                 70                       # number of times the integer registers were read
system.cpu2.num_int_register_writes                29                       # number of times the integer registers were written
system.cpu2.num_load_insts                          5                       # Number of load instructions
system.cpu2.num_mem_refs                            6                       # number of memory refs
system.cpu2.num_store_insts                         1                       # Number of store instructions
system.cpu2.num_vec_alu_accesses                    0                       # Number of vector alu accesses
system.cpu2.num_vec_insts                           0                       # number of vector instructions
system.cpu2.num_vec_register_reads                  0                       # number of times the vector registers were read
system.cpu2.num_vec_register_writes                 0                       # number of times the vector registers were written
system.cpu2.op_class::No_OpClass                    0      0.00%      0.00% # Class of executed instruction
system.cpu2.op_class::IntAlu                       20     71.43%     71.43% # Class of executed instruction
system.cpu2.op_class::IntMult                       2      7.14%     78.57% # Class of executed instruction
system.cpu2.op_class::IntDiv                        0      0.00%     78.57% # Class of executed instruction
system.cpu2.op_class::FloatAdd                      0      0.00%     78.57% # Class of executed instruction
system.cpu2.op_class::FloatCmp                      0      0.00%     78.57% # Class of executed instruction
system.cpu2.op_class::FloatCvt                      0      0.00%     78.57% # Class of executed instruction
system.cpu2.op_class::FloatMult                     0      0.00%     78.57% # Class of executed instruction
system.cpu2.op_class::FloatMultAcc                  0      0.00%     78.57% # Class of executed instruction
system.cpu2.op_class::FloatDiv                      0      0.00%     78.57% # Class of executed instruction
system.cpu2.op_class::FloatMisc                     0      0.00%     78.57% # Class of executed instruction
system.cpu2.op_class::FloatSqrt                     0      0.00%     78.57% # Class of executed instruction
system.cpu2.op_class::SimdAdd                       0      0.00%     78.57% # Class of executed instruction
system.cpu2.op_class::SimdAddAcc                    0      0.00%     78.57% # Class of executed instruction
system.cpu2.op_class::SimdAlu                       0      0.00%     78.57% # Class of executed instruction
system.cpu2.op_class::SimdCmp                       0      0.00%     78.57% # Class of executed instruction
system.cpu2.op_class::SimdCvt                       0      0.00%     78.57% # Class of executed instruction
system.cpu2.op_class::SimdMisc                      0      0.00%     78.57% # Class of executed instruction
system.cpu2.op_class::SimdMult                      0      0.00%     78.57% # Class of executed instruction
system.cpu2.op_class::SimdMultAcc                   0      0.00%     78.57% # Class of executed instruction
system.cpu2.op_class::SimdShift                     0      0.00%     78.57% # Class of executed instruction
system.cpu2.op_class::SimdShiftAcc                  0      0.00%     78.57% # Class of executed instruction
system.cpu2.op_class::SimdDiv                       0      0.00%     78.57% # Class of executed instruction
system.cpu2.op_class::SimdSqrt                      0      0.00%     78.57% # Class of executed instruction
system.cpu2.op_class::SimdFloatAdd                  0      0.00%     78.57% # Class of executed instruction
system.cpu2.op_class::SimdFloatAlu                  0      0.00%     78.57% # Class of executed instruction
system.cpu2.op_class::SimdFloatCmp                  0      0.00%     78.57% # Class of executed instruction
system.cpu2.op_class::SimdFloatCvt                  0      0.00%     78.57% # Class of executed instruction
system.cpu2.op_class::SimdFloatDiv                  0      0.00%     78.57% # Class of executed instruction
system.cpu2.op_class::SimdFloatMisc                 0      0.00%     78.57% # Class of executed instruction
system.cpu2.op_class::SimdFloatMult                 0      0.00%     78.57% # Class of executed instruction
system.cpu2.op_class::SimdFloatMultAcc              0      0.00%     78.57% # Class of executed instruction
system.cpu2.op_class::SimdFloatSqrt                 0      0.00%     78.57% # Class of executed instruction
system.cpu2.op_class::SimdReduceAdd                 0      0.00%     78.57% # Class of executed instruction
system.cpu2.op_class::SimdReduceAlu                 0      0.00%     78.57% # Class of executed instruction
system.cpu2.op_class::SimdReduceCmp                 0      0.00%     78.57% # Class of executed instruction
system.cpu2.op_class::SimdFloatReduceAdd            0      0.00%     78.57% # Class of executed instruction
system.cpu2.op_class::SimdFloatReduceCmp            0      0.00%     78.57% # Class of executed instruction
system.cpu2.op_class::SimdAes                       0      0.00%     78.57% # Class of executed instruction
system.cpu2.op_class::SimdAesMix                    0      0.00%     78.57% # Class of executed instruction
system.cpu2.op_class::SimdSha1Hash                  0      0.00%     78.57% # Class of executed instruction
system.cpu2.op_class::SimdSha1Hash2                 0      0.00%     78.57% # Class of executed instruction
system.cpu2.op_class::SimdSha256Hash                0      0.00%     78.57% # Class of executed instruction
system.cpu2.op_class::SimdSha256Hash2               0      0.00%     78.57% # Class of executed instruction
system.cpu2.op_class::SimdShaSigma2                 0      0.00%     78.57% # Class of executed instruction
system.cpu2.op_class::SimdShaSigma3                 0      0.00%     78.57% # Class of executed instruction
system.cpu2.op_class::SimdPredAlu                   0      0.00%     78.57% # Class of executed instruction
system.cpu2.op_class::MemRead                       5     17.86%     96.43% # Class of executed instruction
system.cpu2.op_class::MemWrite                      1      3.57%    100.00% # Class of executed instruction
system.cpu2.op_class::FloatMemRead                  0      0.00%    100.00% # Class of executed instruction
system.cpu2.op_class::FloatMemWrite                 0      0.00%    100.00% # Class of executed instruction
system.cpu2.op_class::IprAccess                     0      0.00%    100.00% # Class of executed instruction
system.cpu2.op_class::InstPrefetch                  0      0.00%    100.00% # Class of executed instruction
system.cpu2.op_class::total                        28                       # Class of executed instruction
system.cpu2.workload.numSyscalls                    0                       # Number of system calls
system.cpu3.Branches                                3                       # Number of branches fetched
system.cpu3.committedInsts                         13                       # Number of instructions committed
system.cpu3.committedOps                           25                       # Number of ops (including micro ops) committed
system.cpu3.idle_fraction                           0                       # Percentage of idle cycles
system.cpu3.l2bus.snoop_filter.hit_multi_requests           12                       # Number of requests hitting in the snoop filter with multiple (>1) holders of the requested data.
system.cpu3.l2bus.snoop_filter.hit_multi_snoops            0                       # Number of snoops hitting in the snoop filter with multiple (>1) holders of the requested data.
system.cpu3.l2bus.snoop_filter.hit_single_requests        18513                       # Number of requests hitting in the snoop filter with a single holder of the requested data.
system.cpu3.l2bus.snoop_filter.hit_single_snoops            0                       # Number of snoops hitting in the snoop filter with a single holder of the requested data.
system.cpu3.l2bus.snoop_filter.tot_requests        37848                       # Total number of requests made to the snoop filter.
system.cpu3.l2bus.snoop_filter.tot_snoops            0                       # Total number of snoops made to the snoop filter.
system.cpu3.mmucache.mmubus.snoop_filter.hit_multi_requests            0                       # Number of requests hitting in the snoop filter with multiple (>1) holders of the requested data.
system.cpu3.mmucache.mmubus.snoop_filter.hit_multi_snoops            0                       # Number of snoops hitting in the snoop filter with multiple (>1) holders of the requested data.
system.cpu3.mmucache.mmubus.snoop_filter.hit_single_requests            0                       # Number of requests hitting in the snoop filter with a single holder of the requested data.
system.cpu3.mmucache.mmubus.snoop_filter.hit_single_snoops            0                       # Number of snoops hitting in the snoop filter with a single holder of the requested data.
system.cpu3.mmucache.mmubus.snoop_filter.tot_requests            0                       # Total number of requests made to the snoop filter.
system.cpu3.mmucache.mmubus.snoop_filter.tot_snoops            0                       # Total number of snoops made to the snoop filter.
system.cpu3.not_idle_fraction                       1                       # Percentage of non-idle cycles
system.cpu3.numCycles                              30                       # number of cpu cycles simulated
system.cpu3.numWorkItemsCompleted                   0                       # number of work items this cpu completed
system.cpu3.numWorkItemsStarted                     0                       # number of work items this cpu started
system.cpu3.num_busy_cycles                        30                       # Number of busy cycles
system.cpu3.num_cc_register_reads                  27                       # number of times the CC registers were read
system.cpu3.num_cc_register_writes                 16                       # number of times the CC registers were written
system.cpu3.num_conditional_control_insts            1                       # number of instructions that are conditional controls
system.cpu3.num_fp_alu_accesses                     0                       # Number of float alu accesses
system.cpu3.num_fp_insts                            0                       # number of float instructions
system.cpu3.num_fp_register_reads                   0                       # number of times the floating registers were read
system.cpu3.num_fp_register_writes                  0                       # number of times the floating registers were written
system.cpu3.num_func_calls                          0                       # number of times a function call or return occured
system.cpu3.num_idle_cycles                         0                       # Number of idle cycles
system.cpu3.num_int_alu_accesses                   25                       # Number of integer alu accesses
system.cpu3.num_int_insts                          25                       # number of integer instructions
system.cpu3.num_int_register_reads                 48                       # number of times the integer registers were read
system.cpu3.num_int_register_writes                20                       # number of times the integer registers were written
system.cpu3.num_load_insts                          2                       # Number of load instructions
system.cpu3.num_mem_refs                            4                       # number of memory refs
system.cpu3.num_store_insts                         2                       # Number of store instructions
system.cpu3.num_vec_alu_accesses                    0                       # Number of vector alu accesses
system.cpu3.num_vec_insts                           0                       # number of vector instructions
system.cpu3.num_vec_register_reads                  0                       # number of times the vector registers were read
system.cpu3.num_vec_register_writes                 0                       # number of times the vector registers were written
system.cpu3.op_class::No_OpClass                    0      0.00%      0.00% # Class of executed instruction
system.cpu3.op_class::IntAlu                       21     84.00%     84.00% # Class of executed instruction
system.cpu3.op_class::IntMult                       0      0.00%     84.00% # Class of executed instruction
system.cpu3.op_class::IntDiv                        0      0.00%     84.00% # Class of executed instruction
system.cpu3.op_class::FloatAdd                      0      0.00%     84.00% # Class of executed instruction
system.cpu3.op_class::FloatCmp                      0      0.00%     84.00% # Class of executed instruction
system.cpu3.op_class::FloatCvt                      0      0.00%     84.00% # Class of executed instruction
system.cpu3.op_class::FloatMult                     0      0.00%     84.00% # Class of executed instruction
system.cpu3.op_class::FloatMultAcc                  0      0.00%     84.00% # Class of executed instruction
system.cpu3.op_class::FloatDiv                      0      0.00%     84.00% # Class of executed instruction
system.cpu3.op_class::FloatMisc                     0      0.00%     84.00% # Class of executed instruction
system.cpu3.op_class::FloatSqrt                     0      0.00%     84.00% # Class of executed instruction
system.cpu3.op_class::SimdAdd                       0      0.00%     84.00% # Class of executed instruction
system.cpu3.op_class::SimdAddAcc                    0      0.00%     84.00% # Class of executed instruction
system.cpu3.op_class::SimdAlu                       0      0.00%     84.00% # Class of executed instruction
system.cpu3.op_class::SimdCmp                       0      0.00%     84.00% # Class of executed instruction
system.cpu3.op_class::SimdCvt                       0      0.00%     84.00% # Class of executed instruction
system.cpu3.op_class::SimdMisc                      0      0.00%     84.00% # Class of executed instruction
system.cpu3.op_class::SimdMult                      0      0.00%     84.00% # Class of executed instruction
system.cpu3.op_class::SimdMultAcc                   0      0.00%     84.00% # Class of executed instruction
system.cpu3.op_class::SimdShift                     0      0.00%     84.00% # Class of executed instruction
system.cpu3.op_class::SimdShiftAcc                  0      0.00%     84.00% # Class of executed instruction
system.cpu3.op_class::SimdDiv                       0      0.00%     84.00% # Class of executed instruction
system.cpu3.op_class::SimdSqrt                      0      0.00%     84.00% # Class of executed instruction
system.cpu3.op_class::SimdFloatAdd                  0      0.00%     84.00% # Class of executed instruction
system.cpu3.op_class::SimdFloatAlu                  0      0.00%     84.00% # Class of executed instruction
system.cpu3.op_class::SimdFloatCmp                  0      0.00%     84.00% # Class of executed instruction
system.cpu3.op_class::SimdFloatCvt                  0      0.00%     84.00% # Class of executed instruction
system.cpu3.op_class::SimdFloatDiv                  0      0.00%     84.00% # Class of executed instruction
system.cpu3.op_class::SimdFloatMisc                 0      0.00%     84.00% # Class of executed instruction
system.cpu3.op_class::SimdFloatMult                 0      0.00%     84.00% # Class of executed instruction
system.cpu3.op_class::SimdFloatMultAcc              0      0.00%     84.00% # Class of executed instruction
system.cpu3.op_class::SimdFloatSqrt                 0      0.00%     84.00% # Class of executed instruction
system.cpu3.op_class::SimdReduceAdd                 0      0.00%     84.00% # Class of executed instruction
system.cpu3.op_class::SimdReduceAlu                 0      0.00%     84.00% # Class of executed instruction
system.cpu3.op_class::SimdReduceCmp                 0      0.00%     84.00% # Class of executed instruction
system.cpu3.op_class::SimdFloatReduceAdd            0      0.00%     84.00% # Class of executed instruction
system.cpu3.op_class::SimdFloatReduceCmp            0      0.00%     84.00% # Class of executed instruction
system.cpu3.op_class::SimdAes                       0      0.00%     84.00% # Class of executed instruction
system.cpu3.op_class::SimdAesMix                    0      0.00%     84.00% # Class of executed instruction
system.cpu3.op_class::SimdSha1Hash                  0      0.00%     84.00% # Class of executed instruction
system.cpu3.op_class::SimdSha1Hash2                 0      0.00%     84.00% # Class of executed instruction
system.cpu3.op_class::SimdSha256Hash                0      0.00%     84.00% # Class of executed instruction
system.cpu3.op_class::SimdSha256Hash2               0      0.00%     84.00% # Class of executed instruction
system.cpu3.op_class::SimdShaSigma2                 0      0.00%     84.00% # Class of executed instruction
system.cpu3.op_class::SimdShaSigma3                 0      0.00%     84.00% # Class of executed instruction
system.cpu3.op_class::SimdPredAlu                   0      0.00%     84.00% # Class of executed instruction
system.cpu3.op_class::MemRead                       2      8.00%     92.00% # Class of executed instruction
system.cpu3.op_class::MemWrite                      2      8.00%    100.00% # Class of executed instruction
system.cpu3.op_class::FloatMemRead                  0      0.00%    100.00% # Class of executed instruction
system.cpu3.op_class::FloatMemWrite                 0      0.00%    100.00% # Class of executed instruction
system.cpu3.op_class::IprAccess                     0      0.00%    100.00% # Class of executed instruction
system.cpu3.op_class::InstPrefetch                  0      0.00%    100.00% # Class of executed instruction
system.cpu3.op_class::total                        25                       # Class of executed instruction
system.cpu3.workload.numSyscalls                    0                       # Number of system calls
system.l3bus.snoop_filter.hit_multi_requests            0                       # Number of requests hitting in the snoop filter with multiple (>1) holders of the requested data.
system.l3bus.snoop_filter.hit_multi_snoops            0                       # Number of snoops hitting in the snoop filter with multiple (>1) holders of the requested data.
system.l3bus.snoop_filter.hit_single_requests      1838702                       # Number of requests hitting in the snoop filter with a single holder of the requested data.
system.l3bus.snoop_filter.hit_single_snoops            2                       # Number of snoops hitting in the snoop filter with a single holder of the requested data.
system.l3bus.snoop_filter.tot_requests        3691922                       # Total number of requests made to the snoop filter.
system.l3bus.snoop_filter.tot_snoops                2                       # Total number of snoops made to the snoop filter.
system.membus.snoop_filter.hit_multi_requests            0                       # Number of requests hitting in the snoop filter with multiple (>1) holders of the requested data.
system.membus.snoop_filter.hit_multi_snoops            0                       # Number of snoops hitting in the snoop filter with multiple (>1) holders of the requested data.
system.membus.snoop_filter.hit_single_requests       708148                       # Number of requests hitting in the snoop filter with a single holder of the requested data.
system.membus.snoop_filter.hit_single_snoops            0                       # Number of snoops hitting in the snoop filter with a single holder of the requested data.
system.membus.snoop_filter.tot_requests       1494756                       # Total number of requests made to the snoop filter.
system.membus.snoop_filter.tot_snoops               0                       # Total number of snoops made to the snoop filter.
system.switch_cpus0.cc_regfile_reads          3085505                       # number of cc regfile reads
system.switch_cpus0.cc_regfile_writes         2922888                       # number of cc regfile writes
system.switch_cpus0.committedInsts           80690021                       # Number of Instructions Simulated
system.switch_cpus0.committedOps            100640532                       # Number of Ops (including micro ops) Simulated
system.switch_cpus0.cpi                      1.647716                       # CPI: Cycles Per Instruction
system.switch_cpus0.cpi_total                1.647716                       # CPI: Total CPI of All Threads
system.switch_cpus0.fp_regfile_reads        135013211                       # number of floating regfile reads
system.switch_cpus0.fp_regfile_writes        76069812                       # number of floating regfile writes
system.switch_cpus0.idleCycles                 403989                       # Total number of cycles that the CPU has spent unscheduled due to idling
system.switch_cpus0.iew.branchMispredicts          218                       # Number of branch mispredicts detected at execute
system.switch_cpus0.iew.exec_branches          866157                       # Number of branches executed
system.switch_cpus0.iew.exec_nop                    0                       # number of nop insts executed
system.switch_cpus0.iew.exec_rate            0.757574                       # Inst execution rate
system.switch_cpus0.iew.exec_refs            45033658                       # number of memory reference insts executed
system.switch_cpus0.iew.exec_stores           6155060                       # Number of stores executed
system.switch_cpus0.iew.exec_swp                    0                       # number of swp insts executed
system.switch_cpus0.iew.iewBlockCycles           3079                       # Number of cycles IEW is blocking
system.switch_cpus0.iew.iewDispLoadInsts     38809888                       # Number of dispatched load instructions
system.switch_cpus0.iew.iewDispNonSpecInsts            0                       # Number of dispatched non-speculative instructions
system.switch_cpus0.iew.iewDispSquashedInsts          114                       # Number of squashed instructions skipped by dispatch
system.switch_cpus0.iew.iewDispStoreInsts      6155530                       # Number of dispatched store instructions
system.switch_cpus0.iew.iewDispatchedInsts    100656937                       # Number of instructions dispatched to IQ
system.switch_cpus0.iew.iewExecLoadInsts     38878598                       # Number of load instructions executed
system.switch_cpus0.iew.iewExecSquashedInsts          567                       # Number of squashed instructions skipped in execute
system.switch_cpus0.iew.iewExecutedInsts    100722707                       # Number of executed instructions
system.switch_cpus0.iew.iewIQFullEvents          1309                       # Number of times the IQ has become full, causing a stall
system.switch_cpus0.iew.iewIdleCycles               0                       # Number of cycles IEW is idle
system.switch_cpus0.iew.iewLSQFullEvents     15243030                       # Number of times the LSQ has become full, causing a stall
system.switch_cpus0.iew.iewSquashCycles           977                       # Number of cycles IEW is squashing
system.switch_cpus0.iew.iewUnblockCycles     15258358                       # Number of cycles IEW is unblocking
system.switch_cpus0.iew.memOrderViolationEvents          765                       # Number of memory order violations
system.switch_cpus0.iew.predictedNotTakenIncorrect          214                       # Number of branches that were predicted not taken incorrectly
system.switch_cpus0.iew.predictedTakenIncorrect            4                       # Number of branches that were predicted taken incorrectly
system.switch_cpus0.iew.wb_consumers        111477391                       # num instructions consuming a value
system.switch_cpus0.iew.wb_count            100653197                       # cumulative count of insts written-back
system.switch_cpus0.iew.wb_fanout            0.655718                       # average fanout of values written-back
system.switch_cpus0.iew.wb_producers         73097704                       # num instructions producing a value
system.switch_cpus0.iew.wb_rate              0.757051                       # insts written-back per cycle
system.switch_cpus0.iew.wb_sent             100653299                       # cumulative count of insts sent to commit
system.switch_cpus0.int_regfile_reads        97905830                       # number of integer regfile reads
system.switch_cpus0.int_regfile_writes       17413547                       # number of integer regfile writes
system.switch_cpus0.ipc                      0.606901                       # IPC: Instructions Per Cycle
system.switch_cpus0.ipc_total                0.606901                       # IPC: Total IPC of All Threads
system.switch_cpus0.iq.FU_type_0::No_OpClass           46      0.00%      0.00% # Type of FU issued
system.switch_cpus0.iq.FU_type_0::IntAlu     16978656     16.86%     16.86% # Type of FU issued
system.switch_cpus0.iq.FU_type_0::IntMult            0      0.00%     16.86% # Type of FU issued
system.switch_cpus0.iq.FU_type_0::IntDiv            0      0.00%     16.86% # Type of FU issued
system.switch_cpus0.iq.FU_type_0::FloatAdd       365164      0.36%     17.22% # Type of FU issued
system.switch_cpus0.iq.FU_type_0::FloatCmp            0      0.00%     17.22% # Type of FU issued
system.switch_cpus0.iq.FU_type_0::FloatCvt            0      0.00%     17.22% # Type of FU issued
system.switch_cpus0.iq.FU_type_0::FloatMult            0      0.00%     17.22% # Type of FU issued
system.switch_cpus0.iq.FU_type_0::FloatMultAcc            0      0.00%     17.22% # Type of FU issued
system.switch_cpus0.iq.FU_type_0::FloatDiv            0      0.00%     17.22% # Type of FU issued
system.switch_cpus0.iq.FU_type_0::FloatMisc            0      0.00%     17.22% # Type of FU issued
system.switch_cpus0.iq.FU_type_0::FloatSqrt            0      0.00%     17.22% # Type of FU issued
system.switch_cpus0.iq.FU_type_0::SimdAdd            0      0.00%     17.22% # Type of FU issued
system.switch_cpus0.iq.FU_type_0::SimdAddAcc            0      0.00%     17.22% # Type of FU issued
system.switch_cpus0.iq.FU_type_0::SimdAlu       270486      0.27%     17.49% # Type of FU issued
system.switch_cpus0.iq.FU_type_0::SimdCmp            0      0.00%     17.49% # Type of FU issued
system.switch_cpus0.iq.FU_type_0::SimdCvt            0      0.00%     17.49% # Type of FU issued
system.switch_cpus0.iq.FU_type_0::SimdMisc       162293      0.16%     17.65% # Type of FU issued
system.switch_cpus0.iq.FU_type_0::SimdMult            0      0.00%     17.65% # Type of FU issued
system.switch_cpus0.iq.FU_type_0::SimdMultAcc            0      0.00%     17.65% # Type of FU issued
system.switch_cpus0.iq.FU_type_0::SimdShift            0      0.00%     17.65% # Type of FU issued
system.switch_cpus0.iq.FU_type_0::SimdShiftAcc            0      0.00%     17.65% # Type of FU issued
system.switch_cpus0.iq.FU_type_0::SimdDiv            0      0.00%     17.65% # Type of FU issued
system.switch_cpus0.iq.FU_type_0::SimdSqrt            0      0.00%     17.65% # Type of FU issued
system.switch_cpus0.iq.FU_type_0::SimdFloatAdd     21181474     21.03%     38.68% # Type of FU issued
system.switch_cpus0.iq.FU_type_0::SimdFloatAlu            0      0.00%     38.68% # Type of FU issued
system.switch_cpus0.iq.FU_type_0::SimdFloatCmp        27048      0.03%     38.71% # Type of FU issued
system.switch_cpus0.iq.FU_type_0::SimdFloatCvt       148952      0.15%     38.85% # Type of FU issued
system.switch_cpus0.iq.FU_type_0::SimdFloatDiv        40573      0.04%     38.89% # Type of FU issued
system.switch_cpus0.iq.FU_type_0::SimdFloatMisc            0      0.00%     38.89% # Type of FU issued
system.switch_cpus0.iq.FU_type_0::SimdFloatMult     16514777     16.40%     55.29% # Type of FU issued
system.switch_cpus0.iq.FU_type_0::SimdFloatMultAcc            0      0.00%     55.29% # Type of FU issued
system.switch_cpus0.iq.FU_type_0::SimdFloatSqrt            0      0.00%     55.29% # Type of FU issued
system.switch_cpus0.iq.FU_type_0::SimdReduceAdd            0      0.00%     55.29% # Type of FU issued
system.switch_cpus0.iq.FU_type_0::SimdReduceAlu            0      0.00%     55.29% # Type of FU issued
system.switch_cpus0.iq.FU_type_0::SimdReduceCmp            0      0.00%     55.29% # Type of FU issued
system.switch_cpus0.iq.FU_type_0::SimdFloatReduceAdd            0      0.00%     55.29% # Type of FU issued
system.switch_cpus0.iq.FU_type_0::SimdFloatReduceCmp            0      0.00%     55.29% # Type of FU issued
system.switch_cpus0.iq.FU_type_0::SimdAes            0      0.00%     55.29% # Type of FU issued
system.switch_cpus0.iq.FU_type_0::SimdAesMix            0      0.00%     55.29% # Type of FU issued
system.switch_cpus0.iq.FU_type_0::SimdSha1Hash            0      0.00%     55.29% # Type of FU issued
system.switch_cpus0.iq.FU_type_0::SimdSha1Hash2            0      0.00%     55.29% # Type of FU issued
system.switch_cpus0.iq.FU_type_0::SimdSha256Hash            0      0.00%     55.29% # Type of FU issued
system.switch_cpus0.iq.FU_type_0::SimdSha256Hash2            0      0.00%     55.29% # Type of FU issued
system.switch_cpus0.iq.FU_type_0::SimdShaSigma2            0      0.00%     55.29% # Type of FU issued
system.switch_cpus0.iq.FU_type_0::SimdShaSigma3            0      0.00%     55.29% # Type of FU issued
system.switch_cpus0.iq.FU_type_0::SimdPredAlu            0      0.00%     55.29% # Type of FU issued
system.switch_cpus0.iq.FU_type_0::MemRead      8976751      8.91%     64.20% # Type of FU issued
system.switch_cpus0.iq.FU_type_0::MemWrite      1069053      1.06%     65.26% # Type of FU issued
system.switch_cpus0.iq.FU_type_0::FloatMemRead     29901954     29.69%     94.95% # Type of FU issued
system.switch_cpus0.iq.FU_type_0::FloatMemWrite      5086047      5.05%    100.00% # Type of FU issued
system.switch_cpus0.iq.FU_type_0::IprAccess            0      0.00%    100.00% # Type of FU issued
system.switch_cpus0.iq.FU_type_0::InstPrefetch            0      0.00%    100.00% # Type of FU issued
system.switch_cpus0.iq.FU_type_0::total     100723274                       # Type of FU issued
system.switch_cpus0.iq.fp_alu_accesses       82542726                       # Number of floating point alu accesses
system.switch_cpus0.iq.fp_inst_queue_reads    164059135                       # Number of floating instruction queue reads
system.switch_cpus0.iq.fp_inst_queue_wakeup_accesses     81466777                       # Number of floating instruction queue wakeup accesses
system.switch_cpus0.iq.fp_inst_queue_writes     81481319                       # Number of floating instruction queue writes
system.switch_cpus0.iq.fu_busy_cnt            1499260                       # FU busy when requested
system.switch_cpus0.iq.fu_busy_rate          0.014885                       # FU busy rate (busy events/executed inst)
system.switch_cpus0.iq.fu_full::No_OpClass            0      0.00%      0.00% # attempts to use FU when none available
system.switch_cpus0.iq.fu_full::IntAlu          10956      0.73%      0.73% # attempts to use FU when none available
system.switch_cpus0.iq.fu_full::IntMult             0      0.00%      0.73% # attempts to use FU when none available
system.switch_cpus0.iq.fu_full::IntDiv              0      0.00%      0.73% # attempts to use FU when none available
system.switch_cpus0.iq.fu_full::FloatAdd            0      0.00%      0.73% # attempts to use FU when none available
system.switch_cpus0.iq.fu_full::FloatCmp            0      0.00%      0.73% # attempts to use FU when none available
system.switch_cpus0.iq.fu_full::FloatCvt            0      0.00%      0.73% # attempts to use FU when none available
system.switch_cpus0.iq.fu_full::FloatMult            0      0.00%      0.73% # attempts to use FU when none available
system.switch_cpus0.iq.fu_full::FloatMultAcc            0      0.00%      0.73% # attempts to use FU when none available
system.switch_cpus0.iq.fu_full::FloatDiv            0      0.00%      0.73% # attempts to use FU when none available
system.switch_cpus0.iq.fu_full::FloatMisc            0      0.00%      0.73% # attempts to use FU when none available
system.switch_cpus0.iq.fu_full::FloatSqrt            0      0.00%      0.73% # attempts to use FU when none available
system.switch_cpus0.iq.fu_full::SimdAdd             0      0.00%      0.73% # attempts to use FU when none available
system.switch_cpus0.iq.fu_full::SimdAddAcc            0      0.00%      0.73% # attempts to use FU when none available
system.switch_cpus0.iq.fu_full::SimdAlu             0      0.00%      0.73% # attempts to use FU when none available
system.switch_cpus0.iq.fu_full::SimdCmp             0      0.00%      0.73% # attempts to use FU when none available
system.switch_cpus0.iq.fu_full::SimdCvt             0      0.00%      0.73% # attempts to use FU when none available
system.switch_cpus0.iq.fu_full::SimdMisc            0      0.00%      0.73% # attempts to use FU when none available
system.switch_cpus0.iq.fu_full::SimdMult            0      0.00%      0.73% # attempts to use FU when none available
system.switch_cpus0.iq.fu_full::SimdMultAcc            0      0.00%      0.73% # attempts to use FU when none available
system.switch_cpus0.iq.fu_full::SimdShift            0      0.00%      0.73% # attempts to use FU when none available
system.switch_cpus0.iq.fu_full::SimdShiftAcc            0      0.00%      0.73% # attempts to use FU when none available
system.switch_cpus0.iq.fu_full::SimdDiv             0      0.00%      0.73% # attempts to use FU when none available
system.switch_cpus0.iq.fu_full::SimdSqrt            0      0.00%      0.73% # attempts to use FU when none available
system.switch_cpus0.iq.fu_full::SimdFloatAdd          119      0.01%      0.74% # attempts to use FU when none available
system.switch_cpus0.iq.fu_full::SimdFloatAlu            0      0.00%      0.74% # attempts to use FU when none available
system.switch_cpus0.iq.fu_full::SimdFloatCmp            0      0.00%      0.74% # attempts to use FU when none available
system.switch_cpus0.iq.fu_full::SimdFloatCvt            0      0.00%      0.74% # attempts to use FU when none available
system.switch_cpus0.iq.fu_full::SimdFloatDiv            0      0.00%      0.74% # attempts to use FU when none available
system.switch_cpus0.iq.fu_full::SimdFloatMisc            0      0.00%      0.74% # attempts to use FU when none available
system.switch_cpus0.iq.fu_full::SimdFloatMult        88499      5.90%      6.64% # attempts to use FU when none available
system.switch_cpus0.iq.fu_full::SimdFloatMultAcc            0      0.00%      6.64% # attempts to use FU when none available
system.switch_cpus0.iq.fu_full::SimdFloatSqrt            0      0.00%      6.64% # attempts to use FU when none available
system.switch_cpus0.iq.fu_full::SimdReduceAdd            0      0.00%      6.64% # attempts to use FU when none available
system.switch_cpus0.iq.fu_full::SimdReduceAlu            0      0.00%      6.64% # attempts to use FU when none available
system.switch_cpus0.iq.fu_full::SimdReduceCmp            0      0.00%      6.64% # attempts to use FU when none available
system.switch_cpus0.iq.fu_full::SimdFloatReduceAdd            0      0.00%      6.64% # attempts to use FU when none available
system.switch_cpus0.iq.fu_full::SimdFloatReduceCmp            0      0.00%      6.64% # attempts to use FU when none available
system.switch_cpus0.iq.fu_full::SimdAes             0      0.00%      6.64% # attempts to use FU when none available
system.switch_cpus0.iq.fu_full::SimdAesMix            0      0.00%      6.64% # attempts to use FU when none available
system.switch_cpus0.iq.fu_full::SimdSha1Hash            0      0.00%      6.64% # attempts to use FU when none available
system.switch_cpus0.iq.fu_full::SimdSha1Hash2            0      0.00%      6.64% # attempts to use FU when none available
system.switch_cpus0.iq.fu_full::SimdSha256Hash            0      0.00%      6.64% # attempts to use FU when none available
system.switch_cpus0.iq.fu_full::SimdSha256Hash2            0      0.00%      6.64% # attempts to use FU when none available
system.switch_cpus0.iq.fu_full::SimdShaSigma2            0      0.00%      6.64% # attempts to use FU when none available
system.switch_cpus0.iq.fu_full::SimdShaSigma3            0      0.00%      6.64% # attempts to use FU when none available
system.switch_cpus0.iq.fu_full::SimdPredAlu            0      0.00%      6.64% # attempts to use FU when none available
system.switch_cpus0.iq.fu_full::MemRead        449663     29.99%     36.63% # attempts to use FU when none available
system.switch_cpus0.iq.fu_full::MemWrite        14289      0.95%     37.59% # attempts to use FU when none available
system.switch_cpus0.iq.fu_full::FloatMemRead       868667     57.94%     95.53% # attempts to use FU when none available
system.switch_cpus0.iq.fu_full::FloatMemWrite        67067      4.47%    100.00% # attempts to use FU when none available
system.switch_cpus0.iq.fu_full::IprAccess            0      0.00%    100.00% # attempts to use FU when none available
system.switch_cpus0.iq.fu_full::InstPrefetch            0      0.00%    100.00% # attempts to use FU when none available
system.switch_cpus0.iq.int_alu_accesses      19679762                       # Number of integer alu accesses
system.switch_cpus0.iq.int_inst_queue_reads    171436979                       # Number of integer instruction queue reads
system.switch_cpus0.iq.int_inst_queue_wakeup_accesses     19186420                       # Number of integer instruction queue wakeup accesses
system.switch_cpus0.iq.int_inst_queue_writes     19192788                       # Number of integer instruction queue writes
system.switch_cpus0.iq.iqInstsAdded         100656937                       # Number of instructions added to the IQ (excludes non-spec)
system.switch_cpus0.iq.iqInstsIssued        100723274                       # Number of instructions issued
system.switch_cpus0.iq.iqSquashedInstsExamined        16405                       # Number of squashed instructions iterated over during squash; mainly for profiling
system.switch_cpus0.iq.iqSquashedInstsIssued           31                       # Number of squashed instructions issued
system.switch_cpus0.iq.iqSquashedOperandsExamined        10348                       # Number of squashed operands that are examined and possibly removed from graph
system.switch_cpus0.iq.issued_per_cycle::samples    132550275                       # Number of insts issued each cycle
system.switch_cpus0.iq.issued_per_cycle::mean     0.759887                       # Number of insts issued each cycle
system.switch_cpus0.iq.issued_per_cycle::stdev     1.392737                       # Number of insts issued each cycle
system.switch_cpus0.iq.issued_per_cycle::underflows            0      0.00%      0.00% # Number of insts issued each cycle
system.switch_cpus0.iq.issued_per_cycle::0     88835266     67.02%     67.02% # Number of insts issued each cycle
system.switch_cpus0.iq.issued_per_cycle::1     18551611     14.00%     81.02% # Number of insts issued each cycle
system.switch_cpus0.iq.issued_per_cycle::2      9938396      7.50%     88.51% # Number of insts issued each cycle
system.switch_cpus0.iq.issued_per_cycle::3      5743053      4.33%     92.85% # Number of insts issued each cycle
system.switch_cpus0.iq.issued_per_cycle::4      5049312      3.81%     96.66% # Number of insts issued each cycle
system.switch_cpus0.iq.issued_per_cycle::5      2640532      1.99%     98.65% # Number of insts issued each cycle
system.switch_cpus0.iq.issued_per_cycle::6      1112132      0.84%     99.49% # Number of insts issued each cycle
system.switch_cpus0.iq.issued_per_cycle::7       446772      0.34%     99.82% # Number of insts issued each cycle
system.switch_cpus0.iq.issued_per_cycle::8       233201      0.18%    100.00% # Number of insts issued each cycle
system.switch_cpus0.iq.issued_per_cycle::overflows            0      0.00%    100.00% # Number of insts issued each cycle
system.switch_cpus0.iq.issued_per_cycle::min_value            0                       # Number of insts issued each cycle
system.switch_cpus0.iq.issued_per_cycle::max_value            8                       # Number of insts issued each cycle
system.switch_cpus0.iq.issued_per_cycle::total    132550275                       # Number of insts issued each cycle
system.switch_cpus0.iq.rate                  0.757578                       # Inst issue rate
system.switch_cpus0.iq.vec_alu_accesses             0                       # Number of vector alu accesses
system.switch_cpus0.iq.vec_inst_queue_reads            0                       # Number of vector instruction queue reads
system.switch_cpus0.iq.vec_inst_queue_wakeup_accesses            0                       # Number of vector instruction queue wakeup accesses
system.switch_cpus0.iq.vec_inst_queue_writes            0                       # Number of vector instruction queue writes
system.switch_cpus0.memDep0.conflictingLoads        75247                       # Number of conflicting loads.
system.switch_cpus0.memDep0.conflictingStores         5312                       # Number of conflicting stores.
system.switch_cpus0.memDep0.insertedLoads     38809888                       # Number of loads inserted to the mem dependence unit.
system.switch_cpus0.memDep0.insertedStores      6155530                       # Number of stores inserted to the mem dependence unit.
system.switch_cpus0.misc_regfile_reads       50566705                       # number of misc regfile reads
system.switch_cpus0.misc_regfile_writes             1                       # number of misc regfile writes
system.switch_cpus0.numCycles               132954264                       # number of cpu cycles simulated
system.switch_cpus0.numWorkItemsCompleted            0                       # number of work items this cpu completed
system.switch_cpus0.numWorkItemsStarted             0                       # number of work items this cpu started
system.switch_cpus0.timesIdled                  71484                       # Number of times that the entire CPU went into an idle state and unscheduled itself
system.switch_cpus1.cc_regfile_reads        148676944                       # number of cc regfile reads
system.switch_cpus1.cc_regfile_writes        60531779                       # number of cc regfile writes
system.switch_cpus1.committedInsts           98122731                       # Number of Instructions Simulated
system.switch_cpus1.committedOps            169057581                       # Number of Ops (including micro ops) Simulated
system.switch_cpus1.cpi                      1.354979                       # CPI: Cycles Per Instruction
system.switch_cpus1.cpi_total                1.354979                       # CPI: Total CPI of All Threads
system.switch_cpus1.fp_regfile_writes              56                       # number of floating regfile writes
system.switch_cpus1.idleCycles                  10238                       # Total number of cycles that the CPU has spent unscheduled due to idling
system.switch_cpus1.iew.branchMispredicts      2306732                       # Number of branch mispredicts detected at execute
system.switch_cpus1.iew.exec_branches        39292267                       # Number of branches executed
system.switch_cpus1.iew.exec_nop                    0                       # number of nop insts executed
system.switch_cpus1.iew.exec_rate            2.031716                       # Inst execution rate
system.switch_cpus1.iew.exec_refs            67099296                       # number of memory reference insts executed
system.switch_cpus1.iew.exec_stores          13989070                       # Number of stores executed
system.switch_cpus1.iew.exec_swp                    0                       # number of swp insts executed
system.switch_cpus1.iew.iewBlockCycles       46793097                       # Number of cycles IEW is blocking
system.switch_cpus1.iew.iewDispLoadInsts     61023903                       # Number of dispatched load instructions
system.switch_cpus1.iew.iewDispNonSpecInsts            0                       # Number of dispatched non-speculative instructions
system.switch_cpus1.iew.iewDispSquashedInsts        82257                       # Number of squashed instructions skipped by dispatch
system.switch_cpus1.iew.iewDispStoreInsts     15790461                       # Number of dispatched store instructions
system.switch_cpus1.iew.iewDispatchedInsts    308147563                       # Number of instructions dispatched to IQ
system.switch_cpus1.iew.iewExecLoadInsts     53110226                       # Number of load instructions executed
system.switch_cpus1.iew.iewExecSquashedInsts      6942811                       # Number of squashed instructions skipped in execute
system.switch_cpus1.iew.iewExecutedInsts    270125318                       # Number of executed instructions
system.switch_cpus1.iew.iewIQFullEvents        235303                       # Number of times the IQ has become full, causing a stall
system.switch_cpus1.iew.iewIdleCycles               0                       # Number of cycles IEW is idle
system.switch_cpus1.iew.iewLSQFullEvents      4376529                       # Number of times the LSQ has become full, causing a stall
system.switch_cpus1.iew.iewSquashCycles       2231286                       # Number of cycles IEW is squashing
system.switch_cpus1.iew.iewUnblockCycles      4841750                       # Number of cycles IEW is unblocking
system.switch_cpus1.iew.memOrderViolationEvents         6709                       # Number of memory order violations
system.switch_cpus1.iew.predictedNotTakenIncorrect      1260464                       # Number of branches that were predicted not taken incorrectly
system.switch_cpus1.iew.predictedTakenIncorrect      1046268                       # Number of branches that were predicted taken incorrectly
system.switch_cpus1.iew.wb_consumers        282249516                       # num instructions consuming a value
system.switch_cpus1.iew.wb_count            266860868                       # cumulative count of insts written-back
system.switch_cpus1.iew.wb_fanout            0.655280                       # average fanout of values written-back
system.switch_cpus1.iew.wb_producers        184952552                       # num instructions producing a value
system.switch_cpus1.iew.wb_rate              2.007163                       # insts written-back per cycle
system.switch_cpus1.iew.wb_sent             268688555                       # cumulative count of insts sent to commit
system.switch_cpus1.int_regfile_reads       386934548                       # number of integer regfile reads
system.switch_cpus1.int_regfile_writes      216970556                       # number of integer regfile writes
system.switch_cpus1.ipc                      0.738019                       # IPC: Instructions Per Cycle
system.switch_cpus1.ipc_total                0.738019                       # IPC: Total IPC of All Threads
system.switch_cpus1.iq.FU_type_0::No_OpClass       114697      0.04%      0.04% # Type of FU issued
system.switch_cpus1.iq.FU_type_0::IntAlu    205942553     74.33%     74.37% # Type of FU issued
system.switch_cpus1.iq.FU_type_0::IntMult       281381      0.10%     74.47% # Type of FU issued
system.switch_cpus1.iq.FU_type_0::IntDiv       713110      0.26%     74.73% # Type of FU issued
system.switch_cpus1.iq.FU_type_0::FloatAdd            0      0.00%     74.73% # Type of FU issued
system.switch_cpus1.iq.FU_type_0::FloatCmp            0      0.00%     74.73% # Type of FU issued
system.switch_cpus1.iq.FU_type_0::FloatCvt            0      0.00%     74.73% # Type of FU issued
system.switch_cpus1.iq.FU_type_0::FloatMult            0      0.00%     74.73% # Type of FU issued
system.switch_cpus1.iq.FU_type_0::FloatMultAcc            0      0.00%     74.73% # Type of FU issued
system.switch_cpus1.iq.FU_type_0::FloatDiv            0      0.00%     74.73% # Type of FU issued
system.switch_cpus1.iq.FU_type_0::FloatMisc            0      0.00%     74.73% # Type of FU issued
system.switch_cpus1.iq.FU_type_0::FloatSqrt            0      0.00%     74.73% # Type of FU issued
system.switch_cpus1.iq.FU_type_0::SimdAdd            0      0.00%     74.73% # Type of FU issued
system.switch_cpus1.iq.FU_type_0::SimdAddAcc            0      0.00%     74.73% # Type of FU issued
system.switch_cpus1.iq.FU_type_0::SimdAlu            0      0.00%     74.73% # Type of FU issued
system.switch_cpus1.iq.FU_type_0::SimdCmp            0      0.00%     74.73% # Type of FU issued
system.switch_cpus1.iq.FU_type_0::SimdCvt            0      0.00%     74.73% # Type of FU issued
system.switch_cpus1.iq.FU_type_0::SimdMisc            0      0.00%     74.73% # Type of FU issued
system.switch_cpus1.iq.FU_type_0::SimdMult            0      0.00%     74.73% # Type of FU issued
system.switch_cpus1.iq.FU_type_0::SimdMultAcc            0      0.00%     74.73% # Type of FU issued
system.switch_cpus1.iq.FU_type_0::SimdShift            0      0.00%     74.73% # Type of FU issued
system.switch_cpus1.iq.FU_type_0::SimdShiftAcc            0      0.00%     74.73% # Type of FU issued
system.switch_cpus1.iq.FU_type_0::SimdDiv            0      0.00%     74.73% # Type of FU issued
system.switch_cpus1.iq.FU_type_0::SimdSqrt            0      0.00%     74.73% # Type of FU issued
system.switch_cpus1.iq.FU_type_0::SimdFloatAdd            0      0.00%     74.73% # Type of FU issued
system.switch_cpus1.iq.FU_type_0::SimdFloatAlu            0      0.00%     74.73% # Type of FU issued
system.switch_cpus1.iq.FU_type_0::SimdFloatCmp            0      0.00%     74.73% # Type of FU issued
system.switch_cpus1.iq.FU_type_0::SimdFloatCvt            0      0.00%     74.73% # Type of FU issued
system.switch_cpus1.iq.FU_type_0::SimdFloatDiv            0      0.00%     74.73% # Type of FU issued
system.switch_cpus1.iq.FU_type_0::SimdFloatMisc            0      0.00%     74.73% # Type of FU issued
system.switch_cpus1.iq.FU_type_0::SimdFloatMult            0      0.00%     74.73% # Type of FU issued
system.switch_cpus1.iq.FU_type_0::SimdFloatMultAcc            0      0.00%     74.73% # Type of FU issued
system.switch_cpus1.iq.FU_type_0::SimdFloatSqrt            0      0.00%     74.73% # Type of FU issued
system.switch_cpus1.iq.FU_type_0::SimdReduceAdd            0      0.00%     74.73% # Type of FU issued
system.switch_cpus1.iq.FU_type_0::SimdReduceAlu            0      0.00%     74.73% # Type of FU issued
system.switch_cpus1.iq.FU_type_0::SimdReduceCmp            0      0.00%     74.73% # Type of FU issued
system.switch_cpus1.iq.FU_type_0::SimdFloatReduceAdd            0      0.00%     74.73% # Type of FU issued
system.switch_cpus1.iq.FU_type_0::SimdFloatReduceCmp            0      0.00%     74.73% # Type of FU issued
system.switch_cpus1.iq.FU_type_0::SimdAes            0      0.00%     74.73% # Type of FU issued
system.switch_cpus1.iq.FU_type_0::SimdAesMix            0      0.00%     74.73% # Type of FU issued
system.switch_cpus1.iq.FU_type_0::SimdSha1Hash            0      0.00%     74.73% # Type of FU issued
system.switch_cpus1.iq.FU_type_0::SimdSha1Hash2            0      0.00%     74.73% # Type of FU issued
system.switch_cpus1.iq.FU_type_0::SimdSha256Hash            0      0.00%     74.73% # Type of FU issued
system.switch_cpus1.iq.FU_type_0::SimdSha256Hash2            0      0.00%     74.73% # Type of FU issued
system.switch_cpus1.iq.FU_type_0::SimdShaSigma2            0      0.00%     74.73% # Type of FU issued
system.switch_cpus1.iq.FU_type_0::SimdShaSigma3            0      0.00%     74.73% # Type of FU issued
[...]
system.switch_cpus3.commit.numCommittedDist::stdev     3.229612                       # Number of insts commited each cycle
system.switch_cpus3.commit.numCommittedDist::underflows            0      0.00%      0.00% # Number of insts commited each cycle
system.switch_cpus3.commit.numCommittedDist::0     20908032     18.09%     18.09% # Number of insts commited each cycle
system.switch_cpus3.commit.numCommittedDist::1     17434094     15.09%     33.18% # Number of insts commited each cycle
system.switch_cpus3.commit.numCommittedDist::2      6413100      5.55%     38.73% # Number of insts commited each cycle
system.switch_cpus3.commit.numCommittedDist::3     12375485     10.71%     49.44% # Number of insts commited each cycle
system.switch_cpus3.commit.numCommittedDist::4      3676217      3.18%     52.62% # Number of insts commited each cycle
system.switch_cpus3.commit.numCommittedDist::5      6473762      5.60%     58.22% # Number of insts commited each cycle
system.switch_cpus3.commit.numCommittedDist::6      5440288      4.71%     62.93% # Number of insts commited each cycle
system.switch_cpus3.commit.numCommittedDist::7      4757818      4.12%     67.04% # Number of insts commited each cycle
system.switch_cpus3.commit.numCommittedDist::8     38086956     32.96%    100.00% # Number of insts commited each cycle
system.switch_cpus3.commit.numCommittedDist::overflows            0      0.00%    100.00% # Number of insts commited each cycle
system.switch_cpus3.commit.numCommittedDist::min_value            0                       # Number of insts commited each cycle
system.switch_cpus3.commit.numCommittedDist::max_value            8                       # Number of insts commited each cycle
system.switch_cpus3.commit.numCommittedDist::total    115565752                       # Number of insts commited each cycle
system.switch_cpus3.commit.instsCommitted    250000000                       # Number of instructions committed
system.switch_cpus3.commit.opsCommitted     485102529                       # Number of ops (including micro ops) committed
system.switch_cpus3.commit.memRefs          136645950                       # Number of memory references committed
system.switch_cpus3.commit.loads             95833295                       # Number of loads committed
system.switch_cpus3.commit.amos                     0                       # Number of atomic instructions committed
system.switch_cpus3.commit.membars                  0                       # Number of memory barriers committed
system.switch_cpus3.commit.branches          43829523                       # Number of branches committed
system.switch_cpus3.commit.vector                   0                       # Number of committed Vector instructions.
system.switch_cpus3.commit.floating             59130                       # Number of committed floating point instructions.
system.switch_cpus3.commit.integer          482538342                       # Number of committed integer instructions.
system.switch_cpus3.commit.functionCalls       101663                       # Number of function calls committed.
system.switch_cpus3.commit.committedInstType_0::No_OpClass       992353      0.20%      0.20% # Class of committed instruction
system.switch_cpus3.commit.committedInstType_0::IntAlu    343540480     70.82%     71.02% # Class of committed instruction
system.switch_cpus3.commit.committedInstType_0::IntMult      3808988      0.79%     71.81% # Class of committed instruction
system.switch_cpus3.commit.committedInstType_0::IntDiv       114758      0.02%     71.83% # Class of committed instruction
system.switch_cpus3.commit.committedInstType_0::FloatAdd            0      0.00%     71.83% # Class of committed instruction
system.switch_cpus3.commit.committedInstType_0::FloatCmp            0      0.00%     71.83% # Class of committed instruction
system.switch_cpus3.commit.committedInstType_0::FloatCvt            0      0.00%     71.83% # Class of committed instruction
system.switch_cpus3.commit.committedInstType_0::FloatMult            0      0.00%     71.83% # Class of committed instruction
system.switch_cpus3.commit.committedInstType_0::FloatMultAcc            0      0.00%     71.83% # Class of committed instruction
system.switch_cpus3.commit.committedInstType_0::FloatDiv            0      0.00%     71.83% # Class of committed instruction
system.switch_cpus3.commit.committedInstType_0::FloatMisc            0      0.00%     71.83% # Class of committed instruction
system.switch_cpus3.commit.committedInstType_0::FloatSqrt            0      0.00%     71.83% # Class of committed instruction
system.switch_cpus3.commit.committedInstType_0::SimdAdd            0      0.00%     71.83% # Class of committed instruction
system.switch_cpus3.commit.committedInstType_0::SimdAddAcc            0      0.00%     71.83% # Class of committed instruction
system.switch_cpus3.commit.committedInstType_0::SimdAlu            0      0.00%     71.83% # Class of committed instruction
system.switch_cpus3.commit.committedInstType_0::SimdCmp            0      0.00%     71.83% # Class of committed instruction
system.switch_cpus3.commit.committedInstType_0::SimdCvt            0      0.00%     71.83% # Class of committed instruction
system.switch_cpus3.commit.committedInstType_0::SimdMisc            0      0.00%     71.83% # Class of committed instruction
system.switch_cpus3.commit.committedInstType_0::SimdMult            0      0.00%     71.83% # Class of committed instruction
system.switch_cpus3.commit.committedInstType_0::SimdMultAcc            0      0.00%     71.83% # Class of committed instruction
system.switch_cpus3.commit.committedInstType_0::SimdShift            0      0.00%     71.83% # Class of committed instruction
system.switch_cpus3.commit.committedInstType_0::SimdShiftAcc            0      0.00%     71.83% # Class of committed instruction
system.switch_cpus3.commit.committedInstType_0::SimdDiv            0      0.00%     71.83% # Class of committed instruction
system.switch_cpus3.commit.committedInstType_0::SimdSqrt            0      0.00%     71.83% # Class of committed instruction
system.switch_cpus3.commit.committedInstType_0::SimdFloatAdd            0      0.00%     71.83% # Class of committed instruction
system.switch_cpus3.commit.committedInstType_0::SimdFloatAlu            0      0.00%     71.83% # Class of committed instruction
system.switch_cpus3.commit.committedInstType_0::SimdFloatCmp            0      0.00%     71.83% # Class of committed instruction
system.switch_cpus3.commit.committedInstType_0::SimdFloatCvt            0      0.00%     71.83% # Class of committed instruction
system.switch_cpus3.commit.committedInstType_0::SimdFloatDiv            0      0.00%     71.83% # Class of committed instruction
system.switch_cpus3.commit.committedInstType_0::SimdFloatMisc            0      0.00%     71.83% # Class of committed instruction
system.switch_cpus3.commit.committedInstType_0::SimdFloatMult            0      0.00%     71.83% # Class of committed instruction
system.switch_cpus3.commit.committedInstType_0::SimdFloatMultAcc            0      0.00%     71.83% # Class of committed instruction
system.switch_cpus3.commit.committedInstType_0::SimdFloatSqrt            0      0.00%     71.83% # Class of committed instruction
system.switch_cpus3.commit.committedInstType_0::SimdReduceAdd            0      0.00%     71.83% # Class of committed instruction
system.switch_cpus3.commit.committedInstType_0::SimdReduceAlu            0      0.00%     71.83% # Class of committed instruction
system.switch_cpus3.commit.committedInstType_0::SimdReduceCmp            0      0.00%     71.83% # Class of committed instruction
system.switch_cpus3.commit.committedInstType_0::SimdFloatReduceAdd            0      0.00%     71.83% # Class of committed instruction
system.switch_cpus3.commit.committedInstType_0::SimdFloatReduceCmp            0      0.00%     71.83% # Class of committed instruction
system.switch_cpus3.commit.committedInstType_0::SimdAes            0      0.00%     71.83% # Class of committed instruction
system.switch_cpus3.commit.committedInstType_0::SimdAesMix            0      0.00%     71.83% # Class of committed instruction
system.switch_cpus3.commit.committedInstType_0::SimdSha1Hash            0      0.00%     71.83% # Class of committed instruction
system.switch_cpus3.commit.committedInstType_0::SimdSha1Hash2            0      0.00%     71.83% # Class of committed instruction
system.switch_cpus3.commit.committedInstType_0::SimdSha256Hash            0      0.00%     71.83% # Class of committed instruction
system.switch_cpus3.commit.committedInstType_0::SimdSha256Hash2            0      0.00%     71.83% # Class of committed instruction
system.switch_cpus3.commit.committedInstType_0::SimdShaSigma2            0      0.00%     71.83% # Class of committed instruction
system.switch_cpus3.commit.committedInstType_0::SimdShaSigma3            0      0.00%     71.83% # Class of committed instruction
system.switch_cpus3.commit.committedInstType_0::SimdPredAlu            0      0.00%     71.83% # Class of committed instruction
system.switch_cpus3.commit.committedInstType_0::MemRead     95803769     19.75%     91.58% # Class of committed instruction
system.switch_cpus3.commit.committedInstType_0::MemWrite     40783051      8.41%     99.99% # Class of committed instruction
system.switch_cpus3.commit.committedInstType_0::FloatMemRead        29526      0.01%     99.99% # Class of committed instruction
system.switch_cpus3.commit.committedInstType_0::FloatMemWrite        29604      0.01%    100.00% # Class of committed instruction
system.switch_cpus3.commit.committedInstType_0::IprAccess            0      0.00%    100.00% # Class of committed instruction
system.switch_cpus3.commit.committedInstType_0::InstPrefetch            0      0.00%    100.00% # Class of committed instruction
system.switch_cpus3.commit.committedInstType_0::total    485102529                       # Class of committed instruction
system.switch_cpus3.commit.commitEligibleSamples     38086956                       # number cycles where commit BW limit reached
system.switch_cpus3.decode.idleCycles         9907112                       # Number of cycles decode is idle
system.switch_cpus3.decode.blockedCycles     25501791                       # Number of cycles decode is blocked
system.switch_cpus3.decode.runCycles         85924770                       # Number of cycles decode is running
system.switch_cpus3.decode.unblockCycles      9304344                       # Number of cycles decode is unblocking
system.switch_cpus3.decode.squashCycles       2081110                       # Number of cycles decode is squashing
system.switch_cpus3.decode.branchResolved     33270469                       # Number of times decode resolved a  branch
system.switch_cpus3.decode.branchMispred        58430                       # Number of times decode detected a branch misprediction
system.switch_cpus3.decode.decodedInsts     648414022                       # Number of instructions handled by decode
system.switch_cpus3.decode.squashedInsts       241186                       # Number of squashed instructions handled by decode
system.switch_cpus3.dtb.rdAccesses          117195450                       # TLB accesses on read requests
system.switch_cpus3.dtb.wrAccesses           44123824                       # TLB accesses on write requests
system.switch_cpus3.dtb.rdMisses                   52                       # TLB misses on read requests
system.switch_cpus3.dtb.wrMisses                    5                       # TLB misses on write requests
system.switch_cpus3.dtb.walker.power_state.pwrStateResidencyTicks::UNDEFINED 14067252641025                       # Cumulative time (in ticks) in various power states
system.switch_cpus3.fetch.icacheStallCycles      2107051                       # Number of cycles fetch is stalled on an Icache miss
system.switch_cpus3.fetch.insts             349520741                       # Number of instructions fetch has processed
system.switch_cpus3.fetch.branches           60832110                       # Number of branches that fetch encountered
system.switch_cpus3.fetch.predictedBranches     35031903                       # Number of branches that fetch has predicted taken
system.switch_cpus3.fetch.cycles            128473762                       # Number of cycles fetch has run and was not squashing or blocked
system.switch_cpus3.fetch.squashCycles        4276630                       # Number of cycles fetch has spent squashing
system.switch_cpus3.fetch.cacheLines         48750010                       # Number of cache lines fetched
system.switch_cpus3.fetch.icacheSquashes         7298                       # Number of outstanding Icache misses that were squashed
system.switch_cpus3.fetch.nisnDist::samples    132719128                       # Number of instructions fetched each cycle (Total)
system.switch_cpus3.fetch.nisnDist::mean     5.118142                       # Number of instructions fetched each cycle (Total)
system.switch_cpus3.fetch.nisnDist::stdev     3.112327                       # Number of instructions fetched each cycle (Total)
system.switch_cpus3.fetch.nisnDist::underflows            0      0.00%      0.00% # Number of instructions fetched each cycle (Total)
system.switch_cpus3.fetch.nisnDist::0        19827253     14.94%     14.94% # Number of instructions fetched each cycle (Total)
system.switch_cpus3.fetch.nisnDist::1         9023867      6.80%     21.74% # Number of instructions fetched each cycle (Total)
system.switch_cpus3.fetch.nisnDist::2         4770973      3.59%     25.33% # Number of instructions fetched each cycle (Total)
system.switch_cpus3.fetch.nisnDist::3        11528873      8.69%     34.02% # Number of instructions fetched each cycle (Total)
system.switch_cpus3.fetch.nisnDist::4         6487139      4.89%     38.91% # Number of instructions fetched each cycle (Total)
system.switch_cpus3.fetch.nisnDist::5         8331038      6.28%     45.19% # Number of instructions fetched each cycle (Total)
system.switch_cpus3.fetch.nisnDist::6         7247807      5.46%     50.65% # Number of instructions fetched each cycle (Total)
system.switch_cpus3.fetch.nisnDist::7         8985076      6.77%     57.42% # Number of instructions fetched each cycle (Total)
system.switch_cpus3.fetch.nisnDist::8        56517102     42.58%    100.00% # Number of instructions fetched each cycle (Total)
system.switch_cpus3.fetch.nisnDist::overflows            0      0.00%    100.00% # Number of instructions fetched each cycle (Total)
system.switch_cpus3.fetch.nisnDist::min_value            0                       # Number of instructions fetched each cycle (Total)
system.switch_cpus3.fetch.nisnDist::max_value            8                       # Number of instructions fetched each cycle (Total)
system.switch_cpus3.fetch.nisnDist::total    132719128                       # Number of instructions fetched each cycle (Total)
system.switch_cpus3.fetch.branchRate         0.457542                       # Number of branch fetches per cycle
system.switch_cpus3.fetch.rate               2.628880                       # Number of inst fetches per cycle
system.switch_cpus3.itb.rdAccesses                  0                       # TLB accesses on read requests
system.switch_cpus3.itb.wrAccesses           48750010                       # TLB accesses on write requests
system.switch_cpus3.itb.rdMisses                    0                       # TLB misses on read requests
system.switch_cpus3.itb.wrMisses                   34                       # TLB misses on write requests
system.switch_cpus3.itb.walker.power_state.pwrStateResidencyTicks::UNDEFINED 14067252641025                       # Cumulative time (in ticks) in various power states
system.switch_cpus3.lsq0.forwLoads           13808859                       # Number of loads that had data forwarded from stores
system.switch_cpus3.lsq0.squashedLoads       30796315                       # Number of loads squashed
system.switch_cpus3.lsq0.ignoredResponses         2803                       # Number of memory responses ignored because the instruction is squashed
system.switch_cpus3.lsq0.memOrderViolation        42854                       # Number of memory ordering violations
system.switch_cpus3.lsq0.squashedStores       9829335                       # Number of stores squashed
system.switch_cpus3.lsq0.rescheduledLoads           13                       # Number of loads that were rescheduled
system.switch_cpus3.lsq0.blockedByCache             0                       # Number of times an access to memory failed due to the cache being blocked
system.switch_cpus3.power_state.pwrStateResidencyTicks::OFF  44273780568                       # Cumulative time (in ticks) in various power states
system.switch_cpus3.rename.squashCycles       2081110                       # Number of cycles rename is squashing
system.switch_cpus3.rename.idleCycles        14282789                       # Number of cycles rename is idle
system.switch_cpus3.rename.blockCycles       15087421                       # Number of cycles rename is blocking
system.switch_cpus3.rename.serializeStallCycles            0                       # count of cycles rename stalledfor serializing inst
system.switch_cpus3.rename.runCycles         90618827                       # Number of cycles rename is running
system.switch_cpus3.rename.unblockCycles     10648980                       # Number of cycles rename is unblocking
system.switch_cpus3.rename.renamedInsts     635536881                       # Number of instructions processed by rename
system.switch_cpus3.rename.ROBFullEvents        24318                       # Number of times rename has blocked due to ROB full
system.switch_cpus3.rename.IQFullEvents       1919739                       # Number of times rename has blocked due to IQ full
system.switch_cpus3.rename.LQFullEvents       6856524                       # Number of times rename has blocked due to LQ full
system.switch_cpus3.rename.SQFullEvents         60546                       # Number of times rename has blocked due to SQ full
system.switch_cpus3.rename.renamedOperands    808051203                       # Number of destination operands rename has renamed
system.switch_cpus3.rename.lookups         1551758044                       # Number of register rename lookups that rename has made
system.switch_cpus3.rename.intLookups       947337056                       # Number of integer rename lookups
system.switch_cpus3.rename.fpLookups            30548                       # Number of floating rename lookups
system.switch_cpus3.rename.committedMaps    614672558                       # Number of HB maps that are committed
system.switch_cpus3.rename.undoneMaps       193378506                       # Number of HB maps that are undone due to squashing
system.switch_cpus3.rename.serializing              0                       # count of serializing insts renamed
system.switch_cpus3.rename.tempSerializing            0                       # count of temporary serializing insts renamed
system.switch_cpus3.rename.skidInsts         33454855                       # count of insts added to the skid buffer
system.switch_cpus3.rob.reads               690741775                       # The number of ROB reads
system.switch_cpus3.rob.writes             1243717375                       # The number of ROB writes
system.switch_cpus3.thread0.numInsts        250000000                       # Number of Instructions committed
system.switch_cpus3.thread0.numOps          485102529                       # Number of Ops committed
system.switch_cpus3.thread0.numMemRefs              0                       # Number of Memory References
system.voltage_domain.voltage                       1                       # Voltage in Volts

---------- End Simulation Statistics   ----------
