Command line:
./runscript_pride.sh lbm AE.BASELINE.4C 4 2017
Global frequency set at 1000000000000 ticks per second
DRAM config: RowsPerBank: 65536, BanksPerRank: 32, RanksPerChannel: 1
warn: Sockets disabled, not accepting gdb connections
warn: CoherentXBar system.cpu0.mmucache.mmubus has no snooping ports attached!
warn: CoherentXBar system.cpu1.mmucache.mmubus has no snooping ports attached!
warn: CoherentXBar system.cpu2.mmucache.mmubus has no snooping ports attached!
warn: CoherentXBar system.cpu3.mmucache.mmubus has no snooping ports attached!
warn: Checkpoints for file descriptors currently do not work.
warn: Checkpoints for file descriptors currently do not work.
warn: Checkpoints for file descriptors currently do not work.
warn: Checkpoints for file descriptors currently do not work.
gem5 Simulator System.  http://gem5.org
gem5 is copyrighted software; use the --copyright option for details.

gem5 version 20.1.0.5
gem5 compiled Jul 12 2024 12:42:38
gem5 started Jul 22 2024 13:09:33
gem5 executing on a07dda8b130c, pid 86574
command line: /home/user/PrIDE/performance/gem5/build/X86/gem5.opt --outdir=/home/user/PrIDE/performance/gem5/stats/pride_multiprogram_16GBmem_250Mn.SPEC2017.C4/AE.BASELINE.4C/lbm /home/user/PrIDE/performance/gem5/configs/example/se_rq_spec_config_multicore.py --redirects /lib64=/home/utils/gcc-6.2.0/lib64 --benchmark=lbm --benchmark_stdout=/home/user/PrIDE/performance/gem5/stats/pride_multiprogram_16GBmem_250Mn.SPEC2017.C4/AE.BASELINE.4C/lbm/lbm.out --benchmark_stderr=/home/user/PrIDE/performance/gem5/stats/pride_multiprogram_16GBmem_250Mn.SPEC2017.C4/AE.BASELINE.4C/lbm/lbm.err --spec-version=2017 --num-cpus=4 --mem-size=16GB --mem-type=DDR5_2400_32x4 --mem-ranks=1 --checkpoint-dir=/home/user/PrIDE/performance/gem5/cpts/multiprogram_16GBmem_25Bn.SPEC2017.C4/lbm-1-ref-x86 --checkpoint-restore=25000000000 --at-instruction --cpu-type DerivO3CPU --caches --l2cache --l1d_size=32kB --l1i_size=32kB --l2_size=256kB --l1d_assoc=8 --l1i_assoc=8 --l2_assoc=16 --maxinsts=250000000 --prog-interval=300Hz

info: Standard input is not a terminal, disabling listeners.
Benchmark- 0   lbm
Selected benchmark
--> lbm
CMD: ['/opt/spec2017/benchspec/CPU/519.lbm_r/run/run_base_refrate_gem5_se-m64.0000/lbm_r_base.gem5_se-m64', '3000', 'reference.dat', '0', '0', '/opt/spec2017/benchspec/CPU/519.lbm_r/run/run_base_refrate_gem5_se-m64.0000/100_100_130_ldc.of']
CWD: /opt/spec2017/benchspec/CPU/519.lbm_r/run/run_base_refrate_gem5_se-m64.0000/
Process stdout file: /home/user/PrIDE/performance/gem5/stats/pride_multiprogram_16GBmem_250Mn.SPEC2017.C4/AE.BASELINE.4C/lbm/lbm.out_0
Process stderr file: /home/user/PrIDE/performance/gem5/stats/pride_multiprogram_16GBmem_250Mn.SPEC2017.C4/AE.BASELINE.4C/lbm/lbm.err_0
Benchmark- 1   lbm
Selected benchmark
--> lbm
CMD: ['/opt/spec2017/benchspec/CPU/519.lbm_r/run/run_base_refrate_gem5_se-m64.0000/lbm_r_base.gem5_se-m64', '3000', 'reference.dat', '0', '0', '/opt/spec2017/benchspec/CPU/519.lbm_r/run/run_base_refrate_gem5_se-m64.0000/100_100_130_ldc.of']
CWD: /opt/spec2017/benchspec/CPU/519.lbm_r/run/run_base_refrate_gem5_se-m64.0000/
Process stdout file: /home/user/PrIDE/performance/gem5/stats/pride_multiprogram_16GBmem_250Mn.SPEC2017.C4/AE.BASELINE.4C/lbm/lbm.out_1
Process stderr file: /home/user/PrIDE/performance/gem5/stats/pride_multiprogram_16GBmem_250Mn.SPEC2017.C4/AE.BASELINE.4C/lbm/lbm.err_1
Benchmark- 2   lbm
Selected benchmark
--> lbm
CMD: ['/opt/spec2017/benchspec/CPU/519.lbm_r/run/run_base_refrate_gem5_se-m64.0000/lbm_r_base.gem5_se-m64', '3000', 'reference.dat', '0', '0', '/opt/spec2017/benchspec/CPU/519.lbm_r/run/run_base_refrate_gem5_se-m64.0000/100_100_130_ldc.of']
CWD: /opt/spec2017/benchspec/CPU/519.lbm_r/run/run_base_refrate_gem5_se-m64.0000/
Process stdout file: /home/user/PrIDE/performance/gem5/stats/pride_multiprogram_16GBmem_250Mn.SPEC2017.C4/AE.BASELINE.4C/lbm/lbm.out_2
Process stderr file: /home/user/PrIDE/performance/gem5/stats/pride_multiprogram_16GBmem_250Mn.SPEC2017.C4/AE.BASELINE.4C/lbm/lbm.err_2
Benchmark- 3   lbm
Selected benchmark
--> lbm
CMD: ['/opt/spec2017/benchspec/CPU/519.lbm_r/run/run_base_refrate_gem5_se-m64.0000/lbm_r_base.gem5_se-m64', '3000', 'reference.dat', '0', '0', '/opt/spec2017/benchspec/CPU/519.lbm_r/run/run_base_refrate_gem5_se-m64.0000/100_100_130_ldc.of']
CWD: /opt/spec2017/benchspec/CPU/519.lbm_r/run/run_base_refrate_gem5_se-m64.0000/
Process stdout file: /home/user/PrIDE/performance/gem5/stats/pride_multiprogram_16GBmem_250Mn.SPEC2017.C4/AE.BASELINE.4C/lbm/lbm.out_3
Process stderr file: /home/user/PrIDE/performance/gem5/stats/pride_multiprogram_16GBmem_250Mn.SPEC2017.C4/AE.BASELINE.4C/lbm/lbm.err_3
Workload-0: 
['/opt/spec2017/benchspec/CPU/519.lbm_r/run/run_base_refrate_gem5_se-m64.0000/lbm_r_base.gem5_se-m64', '3000', 'reference.dat', '0', '0', '/opt/spec2017/benchspec/CPU/519.lbm_r/run/run_base_refrate_gem5_se-m64.0000/100_100_130_ldc.of']
Workload-1: 
['/opt/spec2017/benchspec/CPU/519.lbm_r/run/run_base_refrate_gem5_se-m64.0000/lbm_r_base.gem5_se-m64', '3000', 'reference.dat', '0', '0', '/opt/spec2017/benchspec/CPU/519.lbm_r/run/run_base_refrate_gem5_se-m64.0000/100_100_130_ldc.of']
Workload-2: 
['/opt/spec2017/benchspec/CPU/519.lbm_r/run/run_base_refrate_gem5_se-m64.0000/lbm_r_base.gem5_se-m64', '3000', 'reference.dat', '0', '0', '/opt/spec2017/benchspec/CPU/519.lbm_r/run/run_base_refrate_gem5_se-m64.0000/100_100_130_ldc.of']
Workload-3: 
['/opt/spec2017/benchspec/CPU/519.lbm_r/run/run_base_refrate_gem5_se-m64.0000/lbm_r_base.gem5_se-m64', '3000', 'reference.dat', '0', '0', '/opt/spec2017/benchspec/CPU/519.lbm_r/run/run_base_refrate_gem5_se-m64.0000/100_100_130_ldc.of']
defense_enable:  False  detector:  MG  mitigation:  RRS  threshold:  800
mg_entries:  1700
rrs_tuples:  3400 rrs_swap_delay:  2740ns rit_acc_delay:  1.25ns
Switch at curTick count:10000
warn: membus.master is deprecated. `master` is now called `mem_side_ports`
warn: No dot file generated. Please install pydot to generate the dot file and pdf.
info: Entering event queue @ 13719052537677.  Starting simulation...
info: Entering event queue @ 13719052547677.  Starting simulation...
warn: PowerState: Already in the requested power state, request ignored
Switched CPUS @ tick 13719052547677
switching cpus
**** REAL SIMULATION ****
info: Entering event queue @ 13719052548000.  Starting simulation...
13722385871010: Event_285: system.switch_cpus3 progress event, total committed:3165743, progress insts committed: 3165743, IPC: 0.316258
13722385871010: Event_284: system.switch_cpus2 progress event, total committed:3169222, progress insts committed: 3169222, IPC: 0.316605
13722385871010: Event_283: system.switch_cpus1 progress event, total committed:3170299, progress insts committed: 3170299, IPC: 0.316713
13722385871010: Event_282: system.switch_cpus0 progress event, total committed:3170286, progress insts committed: 3170286, IPC: 0.316712
13725719204343: Event_282: system.switch_cpus0 progress event, total committed:6108235, progress insts committed: 2937949, IPC: 0.293501
13725719204343: Event_283: system.switch_cpus1 progress event, total committed:6109586, progress insts committed: 2939287, IPC: 0.293635
13725719204343: Event_284: system.switch_cpus2 progress event, total committed:6107990, progress insts committed: 2938768, IPC: 0.293583
13725719204343: Event_285: system.switch_cpus3 progress event, total committed:6098124, progress insts committed: 2932381, IPC: 0.292945
13729052537676: Event_285: system.switch_cpus3 progress event, total committed:8831315, progress insts committed: 2733191, IPC: 0.273046
13729052537676: Event_284: system.switch_cpus2 progress event, total committed:8848339, progress insts committed: 2740349, IPC: 0.273761
13729052537676: Event_283: system.switch_cpus1 progress event, total committed:8859508, progress insts committed: 2749922, IPC: 0.274717
13729052537676: Event_282: system.switch_cpus0 progress event, total committed:8859266, progress insts committed: 2751031, IPC: 0.274828
13732385871009: Event_282: system.switch_cpus0 progress event, total committed:11794606, progress insts committed: 2935340, IPC: 00.29324
13732385871009: Event_283: system.switch_cpus1 progress event, total committed:11794639, progress insts committed: 2935131, IPC: 00.29322
13732385871009: Event_284: system.switch_cpus2 progress event, total committed:11784747, progress insts committed: 2936408, IPC: 0.293347
13732385871009: Event_285: system.switch_cpus3 progress event, total committed:11766891, progress insts committed: 2935576, IPC: 0.293264
13735719204342: Event_285: system.switch_cpus3 progress event, total committed:14545700, progress insts committed: 2778809, IPC: 0.277603
13735719204342: Event_284: system.switch_cpus2 progress event, total committed:14557117, progress insts committed: 2772370, IPC: 00.27696
13735719204342: Event_283: system.switch_cpus1 progress event, total committed:14575282, progress insts committed: 2780643, IPC: 0.277786
13735719204342: Event_282: system.switch_cpus0 progress event, total committed:14570717, progress insts committed: 2776111, IPC: 0.277333
13739052537675: Event_282: system.switch_cpus0 progress event, total committed:17343991, progress insts committed: 2773274, IPC: 00.27705
13739052537675: Event_283: system.switch_cpus1 progress event, total committed:17351064, progress insts committed: 2775782, IPC: 0.277301
13739052537675: Event_284: system.switch_cpus2 progress event, total committed:17330319, progress insts committed: 2773202, IPC: 0.277043
13739052537675: Event_285: system.switch_cpus3 progress event, total committed:17314114, progress insts committed: 2768414, IPC: 0.276565
13742385871008: Event_285: system.switch_cpus3 progress event, total committed:20233440, progress insts committed: 2919326, IPC: 0.291641
13742385871008: Event_284: system.switch_cpus2 progress event, total committed:20249703, progress insts committed: 2919384, IPC: 0.291646
13742385871008: Event_283: system.switch_cpus1 progress event, total committed:20271502, progress insts committed: 2920438, IPC: 0.291752
13742385871008: Event_282: system.switch_cpus0 progress event, total committed:20265360, progress insts committed: 2921369, IPC: 0.291845
13745719204341: Event_282: system.switch_cpus0 progress event, total committed:23010339, progress insts committed: 2744979, IPC: 0.274223
13745719204341: Event_283: system.switch_cpus1 progress event, total committed:23014380, progress insts committed: 2742878, IPC: 0.274014
13745719204341: Event_284: system.switch_cpus2 progress event, total committed:23002272, progress insts committed: 2752569, IPC: 0.274982
13745719204341: Event_285: system.switch_cpus3 progress event, total committed:22990039, progress insts committed: 2756599, IPC: 0.275384
13749052537674: Event_285: system.switch_cpus3 progress event, total committed:25934946, progress insts committed: 2944907, IPC: 0.294196
13749052537674: Event_284: system.switch_cpus2 progress event, total committed:25936871, progress insts committed: 2934599, IPC: 0.293166
13749052537674: Event_283: system.switch_cpus1 progress event, total committed:25959000, progress insts committed: 2944620, IPC: 0.294168
13749052537674: Event_282: system.switch_cpus0 progress event, total committed:25948882, progress insts committed: 2938543, IPC: 00.29356
13752385871007: Event_282: system.switch_cpus0 progress event, total committed:28716811, progress insts committed: 2767929, IPC: 0.276516
13752385871007: Event_283: system.switch_cpus1 progress event, total committed:28718370, progress insts committed: 2759370, IPC: 0.275661
13752385871007: Event_284: system.switch_cpus2 progress event, total committed:28702296, progress insts committed: 2765425, IPC: 0.276266
13752385871007: Event_285: system.switch_cpus3 progress event, total committed:28688464, progress insts committed: 2753518, IPC: 0.275076
13755719204340: Event_285: system.switch_cpus3 progress event, total committed:31641064, progress insts committed: 2952600, IPC: 0.294965
13755719204340: Event_284: system.switch_cpus2 progress event, total committed:31643521, progress insts committed: 2941225, IPC: 0.293828
13755719204340: Event_283: system.switch_cpus1 progress event, total committed:31671212, progress insts committed: 2952842, IPC: 0.294989
13755719204340: Event_282: system.switch_cpus0 progress event, total committed:31660043, progress insts committed: 2943232, IPC: 0.294029
13759052537673: Event_282: system.switch_cpus0 progress event, total committed:34425020, progress insts committed: 2764977, IPC: 0.276221
13759052537673: Event_283: system.switch_cpus1 progress event, total committed:34435660, progress insts committed: 2764448, IPC: 0.276168
13759052537673: Event_284: system.switch_cpus2 progress event, total committed:34423310, progress insts committed: 2779789, IPC: 0.277701
13759052537673: Event_285: system.switch_cpus3 progress event, total committed:34407726, progress insts committed: 2766662, IPC: 00.27639
13762385871006: Event_285: system.switch_cpus3 progress event, total committed:37353680, progress insts committed: 2945954, IPC: 0.294301
13762385871006: Event_284: system.switch_cpus2 progress event, total committed:37373364, progress insts committed: 2950054, IPC: 00.29471
13762385871006: Event_283: system.switch_cpus1 progress event, total committed:37395421, progress insts committed: 2959761, IPC: 00.29568
13762385871006: Event_282: system.switch_cpus0 progress event, total committed:37386132, progress insts committed: 2961112, IPC: 0.295815
13765719204339: Event_282: system.switch_cpus0 progress event, total committed:40174762, progress insts committed: 2788630, IPC: 0.278584
13765719204339: Event_283: system.switch_cpus1 progress event, total committed:40182919, progress insts committed: 2787498, IPC: 0.278471
13765719204339: Event_284: system.switch_cpus2 progress event, total committed:40164899, progress insts committed: 2791535, IPC: 0.278874
13765719204339: Event_285: system.switch_cpus3 progress event, total committed:40142023, progress insts committed: 2788343, IPC: 0.278555
13769052537672: Event_285: system.switch_cpus3 progress event, total committed:42935441, progress insts committed: 2793418, IPC: 0.279062
13769052537672: Event_284: system.switch_cpus2 progress event, total committed:42963584, progress insts committed: 2798685, IPC: 0.279589
13769052537672: Event_283: system.switch_cpus1 progress event, total committed:42981062, progress insts committed: 2798143, IPC: 0.279534
13769052537672: Event_282: system.switch_cpus0 progress event, total committed:42967475, progress insts committed: 2792713, IPC: 0.278992
13772385871005: Event_282: system.switch_cpus0 progress event, total committed:45857472, progress insts committed: 2889997, IPC: 0.288711
13772385871005: Event_283: system.switch_cpus1 progress event, total committed:45872610, progress insts committed: 2891548, IPC: 0.288866
13772385871005: Event_284: system.switch_cpus2 progress event, total committed:45847074, progress insts committed: 2883490, IPC: 0.288061
13772385871005: Event_285: system.switch_cpus3 progress event, total committed:45826744, progress insts committed: 2891303, IPC: 0.288841
13775719204338: Event_285: system.switch_cpus3 progress event, total committed:48565306, progress insts committed: 2738562, IPC: 0.273582
13775719204338: Event_284: system.switch_cpus2 progress event, total committed:48588242, progress insts committed: 2741168, IPC: 0.273843
13775719204338: Event_283: system.switch_cpus1 progress event, total committed:48614081, progress insts committed: 2741471, IPC: 0.273873
13775719204338: Event_282: system.switch_cpus0 progress event, total committed:48599162, progress insts committed: 2741690, IPC: 0.273895
13779052537671: Event_282: system.switch_cpus0 progress event, total committed:51528364, progress insts committed: 2929202, IPC: 0.292627
13779052537671: Event_283: system.switch_cpus1 progress event, total committed:51543582, progress insts committed: 2929501, IPC: 0.292657
13779052537671: Event_284: system.switch_cpus2 progress event, total committed:51516660, progress insts committed: 2928418, IPC: 0.292549
13779052537671: Event_285: system.switch_cpus3 progress event, total committed:51491844, progress insts committed: 2926538, IPC: 0.292361
13782385871004: Event_285: system.switch_cpus3 progress event, total committed:54267936, progress insts committed: 2776092, IPC: 0.277332
13782385871004: Event_284: system.switch_cpus2 progress event, total committed:54287979, progress insts committed: 2771319, IPC: 0.276855
13782385871004: Event_283: system.switch_cpus1 progress event, total committed:54321250, progress insts committed: 2777668, IPC: 0.277489
13782385871004: Event_282: system.switch_cpus0 progress event, total committed:54295714, progress insts committed: 2767350, IPC: 0.276458
13785719204337: Event_282: system.switch_cpus0 progress event, total committed:57217458, progress insts committed: 2921744, IPC: 0.291882
13785719204337: Event_283: system.switch_cpus1 progress event, total committed:57246428, progress insts committed: 2925178, IPC: 0.292225
13785719204337: Event_284: system.switch_cpus2 progress event, total committed:57208124, progress insts committed: 2920145, IPC: 0.291722
13785719204337: Event_285: system.switch_cpus3 progress event, total committed:57188084, progress insts committed: 2920148, IPC: 0.291723
13789052537670: Event_285: system.switch_cpus3 progress event, total committed:59919386, progress insts committed: 2731302, IPC: 0.272857
13789052537670: Event_284: system.switch_cpus2 progress event, total committed:59937346, progress insts committed: 2729222, IPC: 0.272649
13789052537670: Event_283: system.switch_cpus1 progress event, total committed:59978367, progress insts committed: 2731939, IPC: 0.272921
13789052537670: Event_282: system.switch_cpus0 progress event, total committed:59952484, progress insts committed: 2735026, IPC: 0.273229
13792385871003: Event_282: system.switch_cpus0 progress event, total committed:62861750, progress insts committed: 2909266, IPC: 0.290636
13792385871003: Event_283: system.switch_cpus1 progress event, total committed:62890785, progress insts committed: 2912418, IPC: 0.290951
13792385871003: Event_284: system.switch_cpus2 progress event, total committed:62852389, progress insts committed: 2915043, IPC: 0.291213
13792385871003: Event_285: system.switch_cpus3 progress event, total committed:62830028, progress insts committed: 2910642, IPC: 0.290773
13795719204336: Event_285: system.switch_cpus3 progress event, total committed:65580460, progress insts committed: 2750432, IPC: 0.274768
13795719204336: Event_284: system.switch_cpus2 progress event, total committed:65594963, progress insts committed: 2742574, IPC: 0.273983
13795719204336: Event_283: system.switch_cpus1 progress event, total committed:65633419, progress insts committed: 2742634, IPC: 0.273989
13795719204336: Event_282: system.switch_cpus0 progress event, total committed:65612204, progress insts committed: 2750454, IPC: 00.27477
13799052537669: Event_282: system.switch_cpus0 progress event, total committed:68360687, progress insts committed: 2748483, IPC: 0.274573
13799052537669: Event_283: system.switch_cpus1 progress event, total committed:68360960, progress insts committed: 2727541, IPC: 0.272481
13799052537669: Event_284: system.switch_cpus2 progress event, total committed:68360473, progress insts committed: 2765510, IPC: 0.276274
13799052537669: Event_285: system.switch_cpus3 progress event, total committed:68360245, progress insts committed: 2779785, IPC: 0.277701
13802385871002: Event_285: system.switch_cpus3 progress event, total committed:71235052, progress insts committed: 2874807, IPC: 0.287193
13802385871002: Event_284: system.switch_cpus2 progress event, total committed:71253594, progress insts committed: 2893121, IPC: 0.289023
13802385871002: Event_283: system.switch_cpus1 progress event, total committed:71290074, progress insts committed: 2929114, IPC: 0.292618
13802385871002: Event_282: system.switch_cpus0 progress event, total committed:71272988, progress insts committed: 2912301, IPC: 0.290939
13805719204335: Event_282: system.switch_cpus0 progress event, total committed:74013382, progress insts committed: 2740394, IPC: 0.273765
13805719204335: Event_283: system.switch_cpus1 progress event, total committed:74025200, progress insts committed: 2735126, IPC: 0.273239
13805719204335: Event_284: system.switch_cpus2 progress event, total committed:73992634, progress insts committed: 2739040, IPC: 00.27363
13805719204335: Event_285: system.switch_cpus3 progress event, total committed:73963969, progress insts committed: 2728917, IPC: 0.272619
13809052537668: Event_285: system.switch_cpus3 progress event, total committed:76882344, progress insts committed: 2918375, IPC: 0.291546
13809052537668: Event_284: system.switch_cpus2 progress event, total committed:76900784, progress insts committed: 2908150, IPC: 0.290524
13809052537668: Event_283: system.switch_cpus1 progress event, total committed:76942234, progress insts committed: 2917034, IPC: 0.291412
13809052537668: Event_282: system.switch_cpus0 progress event, total committed:76924486, progress insts committed: 2911104, IPC: 0.290819
13812385871001: Event_282: system.switch_cpus0 progress event, total committed:79634798, progress insts committed: 2710312, IPC: 00.27076
13812385871001: Event_283: system.switch_cpus1 progress event, total committed:79662707, progress insts committed: 2720473, IPC: 0.271775
13812385871001: Event_284: system.switch_cpus2 progress event, total committed:79617989, progress insts committed: 2717205, IPC: 0.271449
13812385871001: Event_285: system.switch_cpus3 progress event, total committed:79593433, progress insts committed: 2711089, IPC: 0.270838
13815719204334: Event_285: system.switch_cpus3 progress event, total committed:82468776, progress insts committed: 2875343, IPC: 0.287247
13815719204334: Event_284: system.switch_cpus2 progress event, total committed:82492130, progress insts committed: 2874141, IPC: 0.287127
13815719204334: Event_283: system.switch_cpus1 progress event, total committed:82539936, progress insts committed: 2877229, IPC: 0.287435
13815719204334: Event_282: system.switch_cpus0 progress event, total committed:82512528, progress insts committed: 2877730, IPC: 0.287485
13819052537667: Event_282: system.switch_cpus0 progress event, total committed:85220650, progress insts committed: 2708122, IPC: 0.270541
13819052537667: Event_283: system.switch_cpus1 progress event, total committed:85246243, progress insts committed: 2706307, IPC: 00.27036
13819052537667: Event_284: system.switch_cpus2 progress event, total committed:85207241, progress insts committed: 2715111, IPC: 00.27124
13819052537667: Event_285: system.switch_cpus3 progress event, total committed:85176431, progress insts committed: 2707655, IPC: 0.270495
13822385871000: Event_285: system.switch_cpus3 progress event, total committed:88076240, progress insts committed: 2899809, IPC: 0.289691
13822385871000: Event_284: system.switch_cpus2 progress event, total committed:88096092, progress insts committed: 2888851, IPC: 0.288596
13822385871000: Event_283: system.switch_cpus1 progress event, total committed:88146002, progress insts committed: 2899759, IPC: 0.289686
13822385871000: Event_282: system.switch_cpus0 progress event, total committed:88118146, progress insts committed: 2897496, IPC: 00.28946
13825719204333: Event_282: system.switch_cpus0 progress event, total committed:90822256, progress insts committed: 2704110, IPC: 0.270141
13825719204333: Event_283: system.switch_cpus1 progress event, total committed:90846791, progress insts committed: 2700789, IPC: 0.269809
13825719204333: Event_284: system.switch_cpus2 progress event, total committed:90804949, progress insts committed: 2708857, IPC: 0.270615
13825719204333: Event_285: system.switch_cpus3 progress event, total committed:90773016, progress insts committed: 2696776, IPC: 0.269408
13829052537666: Event_285: system.switch_cpus3 progress event, total committed:93644169, progress insts committed: 2871153, IPC: 0.286828
13829052537666: Event_284: system.switch_cpus2 progress event, total committed:93670419, progress insts committed: 2865470, IPC: 00.28626
13829052537666: Event_283: system.switch_cpus1 progress event, total committed:93710443, progress insts committed: 2863652, IPC: 0.286079
13829052537666: Event_282: system.switch_cpus0 progress event, total committed:93691695, progress insts committed: 2869439, IPC: 0.286657
13832385870999: Event_282: system.switch_cpus0 progress event, total committed:96348657, progress insts committed: 2656962, IPC: 0.265431
13832385870999: Event_283: system.switch_cpus1 progress event, total committed:96372721, progress insts committed: 2662278, IPC: 0.265962
13832385870999: Event_284: system.switch_cpus2 progress event, total committed:96335684, progress insts committed: 2665265, IPC: 00.26626
13832385870999: Event_285: system.switch_cpus3 progress event, total committed:96312932, progress insts committed: 2668763, IPC: 0.266609
13835719204332: Event_285: system.switch_cpus3 progress event, total committed:99143578, progress insts committed: 2830646, IPC: 0.282782
13835719204332: Event_284: system.switch_cpus2 progress event, total committed:99143877, progress insts committed: 2808193, IPC: 0.280538
13835719204332: Event_283: system.switch_cpus1 progress event, total committed:99144378, progress insts committed: 2771657, IPC: 0.276889
13835719204332: Event_282: system.switch_cpus0 progress event, total committed:99144050, progress insts committed: 2795393, IPC: 00.27926
13839052537665: Event_282: system.switch_cpus0 progress event, total committed:101883166, progress insts committed: 2739116, IPC: 0.273638
13839052537665: Event_283: system.switch_cpus1 progress event, total committed:101914312, progress insts committed: 2769934, IPC: 0.276716
13839052537665: Event_284: system.switch_cpus2 progress event, total committed:101870230, progress insts committed: 2726353, IPC: 0.272363
13839052537665: Event_285: system.switch_cpus3 progress event, total committed:101845038, progress insts committed: 2701460, IPC: 0.269876
13842385870998: Event_285: system.switch_cpus3 progress event, total committed:104546572, progress insts committed: 2701534, IPC: 0.269883
13842385870998: Event_284: system.switch_cpus2 progress event, total committed:104575279, progress insts committed: 2705049, IPC: 0.270234
13842385870998: Event_283: system.switch_cpus1 progress event, total committed:104616149, progress insts committed: 2701837, IPC: 0.269914
13842385870998: Event_282: system.switch_cpus0 progress event, total committed:104596027, progress insts committed: 2712861, IPC: 0.271015
13845719204331: Event_282: system.switch_cpus0 progress event, total committed:107471974, progress insts committed: 2875947, IPC: 0.287307
13845719204331: Event_283: system.switch_cpus1 progress event, total committed:107494118, progress insts committed: 2877969, IPC: 0.287509
13845719204331: Event_284: system.switch_cpus2 progress event, total committed:107454881, progress insts committed: 2879602, IPC: 0.287672
13845719204331: Event_285: system.switch_cpus3 progress event, total committed:107424844, progress insts committed: 2878272, IPC: 0.287539
13849052537664: Event_285: system.switch_cpus3 progress event, total committed:110143022, progress insts committed: 2718178, IPC: 0.271546
13849052537664: Event_284: system.switch_cpus2 progress event, total committed:110160415, progress insts committed: 2705534, IPC: 0.270283
13849052537664: Event_283: system.switch_cpus1 progress event, total committed:110200894, progress insts committed: 2706776, IPC: 0.270407
13849052537664: Event_282: system.switch_cpus0 progress event, total committed:110179025, progress insts committed: 2707051, IPC: 0.270434
13852385870997: Event_282: system.switch_cpus0 progress event, total committed:113042422, progress insts committed: 2863397, IPC: 0.286053
13852385870997: Event_283: system.switch_cpus1 progress event, total committed:113073937, progress insts committed: 2873043, IPC: 0.287017
13852385870997: Event_284: system.switch_cpus2 progress event, total committed:113026462, progress insts committed: 2866047, IPC: 0.286318
13852385870997: Event_285: system.switch_cpus3 progress event, total committed:113006664, progress insts committed: 2863642, IPC: 0.286078
13855719204330: Event_285: system.switch_cpus3 progress event, total committed:115735621, progress insts committed: 2728957, IPC: 0.272623
13855719204330: Event_284: system.switch_cpus2 progress event, total committed:115751912, progress insts committed: 2725450, IPC: 0.272272
13855719204330: Event_283: system.switch_cpus1 progress event, total committed:115797422, progress insts committed: 2723485, IPC: 0.272076
13855719204330: Event_282: system.switch_cpus0 progress event, total committed:115771599, progress insts committed: 2729177, IPC: 0.272645
13859052537663: Event_282: system.switch_cpus0 progress event, total committed:118676669, progress insts committed: 2905070, IPC: 0.290216
13859052537663: Event_283: system.switch_cpus1 progress event, total committed:118697599, progress insts committed: 2900177, IPC: 0.289728
13859052537663: Event_284: system.switch_cpus2 progress event, total committed:118662660, progress insts committed: 2910748, IPC: 0.290784
13859052537663: Event_285: system.switch_cpus3 progress event, total committed:118632581, progress insts committed: 2896960, IPC: 0.289406
13862385870996: Event_285: system.switch_cpus3 progress event, total committed:121360981, progress insts committed: 2728400, IPC: 0.272567
13862385870996: Event_284: system.switch_cpus2 progress event, total committed:121387893, progress insts committed: 2725233, IPC: 0.272251
13862385870996: Event_283: system.switch_cpus1 progress event, total committed:121424413, progress insts committed: 2726814, IPC: 0.272409
13862385870996: Event_282: system.switch_cpus0 progress event, total committed:121404674, progress insts committed: 2728005, IPC: 0.272528
13865719204329: Event_282: system.switch_cpus0 progress event, total committed:124341646, progress insts committed: 2936972, IPC: 0.293404
13865719204329: Event_283: system.switch_cpus1 progress event, total committed:124367182, progress insts committed: 2942769, IPC: 0.293983
13865719204329: Event_284: system.switch_cpus2 progress event, total committed:124329828, progress insts committed: 2941935, IPC: 0.293899
13865719204329: Event_285: system.switch_cpus3 progress event, total committed:124305356, progress insts committed: 2944375, IPC: 0.294143
13869052537662: Event_285: system.switch_cpus3 progress event, total committed:127056883, progress insts committed: 2751527, IPC: 0.274878
13869052537662: Event_284: system.switch_cpus2 progress event, total committed:127072893, progress insts committed: 2743065, IPC: 0.274032
13869052537662: Event_283: system.switch_cpus1 progress event, total committed:127111850, progress insts committed: 2744668, IPC: 0.274192
13869052537662: Event_282: system.switch_cpus0 progress event, total committed:127094760, progress insts committed: 2753114, IPC: 0.275036
13872385870995: Event_282: system.switch_cpus0 progress event, total committed:129936248, progress insts committed: 2841488, IPC: 0.283865
13872385870995: Event_283: system.switch_cpus1 progress event, total committed:129936490, progress insts committed: 2824640, IPC: 0.282182
13872385870995: Event_284: system.switch_cpus2 progress event, total committed:129936013, progress insts committed: 2863120, IPC: 0.286026
13872385870995: Event_285: system.switch_cpus3 progress event, total committed:129935784, progress insts committed: 2878901, IPC: 0.287602
13875719204328: Event_285: system.switch_cpus3 progress event, total committed:132741725, progress insts committed: 2805941, IPC: 0.280314
13875719204328: Event_284: system.switch_cpus2 progress event, total committed:132765602, progress insts committed: 2829589, IPC: 0.282676
13875719204328: Event_283: system.switch_cpus1 progress event, total committed:132805424, progress insts committed: 2868934, IPC: 0.286607
13875719204328: Event_282: system.switch_cpus0 progress event, total committed:132781157, progress insts committed: 2844909, IPC: 0.284206
13879052537661: Event_282: system.switch_cpus0 progress event, total committed:135556524, progress insts committed: 2775367, IPC: 0.277259
13879052537661: Event_283: system.switch_cpus1 progress event, total committed:135580467, progress insts committed: 2775043, IPC: 0.277227
13879052537661: Event_284: system.switch_cpus2 progress event, total committed:135541817, progress insts committed: 2776215, IPC: 0.277344
13879052537661: Event_285: system.switch_cpus3 progress event, total committed:135511193, progress insts committed: 2769468, IPC: 00.27667
13882385870994: Event_285: system.switch_cpus3 progress event, total committed:138425489, progress insts committed: 2914296, IPC: 0.291138
13882385870994: Event_284: system.switch_cpus2 progress event, total committed:138454029, progress insts committed: 2912212, IPC: 00.29093
13882385870994: Event_283: system.switch_cpus1 progress event, total committed:138495050, progress insts committed: 2914583, IPC: 0.291167
13882385870994: Event_282: system.switch_cpus0 progress event, total committed:138472784, progress insts committed: 2916260, IPC: 0.291334
13885719204327: Event_282: system.switch_cpus0 progress event, total committed:141238059, progress insts committed: 2765275, IPC: 0.276251
13885719204327: Event_283: system.switch_cpus1 progress event, total committed:141253544, progress insts committed: 2758494, IPC: 0.275574
13885719204327: Event_284: system.switch_cpus2 progress event, total committed:141206350, progress insts committed: 2752321, IPC: 0.274957
13885719204327: Event_285: system.switch_cpus3 progress event, total committed:141193544, progress insts committed: 2768055, IPC: 0.276529
13889052537660: Event_285: system.switch_cpus3 progress event, total committed:144157671, progress insts committed: 2964127, IPC: 0.296116
13889052537660: Event_284: system.switch_cpus2 progress event, total committed:144179419, progress insts committed: 2973069, IPC: 00.29701
13889052537660: Event_283: system.switch_cpus1 progress event, total committed:144228832, progress insts committed: 2975288, IPC: 0.297231
13889052537660: Event_282: system.switch_cpus0 progress event, total committed:144203000, progress insts committed: 2964941, IPC: 0.296198
13892385870993: Event_282: system.switch_cpus0 progress event, total committed:146925553, progress insts committed: 2722553, IPC: 0.271983
13892385870993: Event_283: system.switch_cpus1 progress event, total committed:146951635, progress insts committed: 2722803, IPC: 0.272008
13892385870993: Event_284: system.switch_cpus2 progress event, total committed:146907424, progress insts committed: 2728005, IPC: 0.272528
13892385870993: Event_285: system.switch_cpus3 progress event, total committed:146881806, progress insts committed: 2724135, IPC: 0.272141
13895719204326: Event_285: system.switch_cpus3 progress event, total committed:149758186, progress insts committed: 2876380, IPC: 00.28735
13895719204326: Event_284: system.switch_cpus2 progress event, total committed:149781680, progress insts committed: 2874256, IPC: 0.287138
13895719204326: Event_283: system.switch_cpus1 progress event, total committed:149828854, progress insts committed: 2877219, IPC: 0.287434
13895719204326: Event_282: system.switch_cpus0 progress event, total committed:149801722, progress insts committed: 2876169, IPC: 0.287329
13899052537659: Event_282: system.switch_cpus0 progress event, total committed:152546627, progress insts committed: 2744905, IPC: 0.274216
13899052537659: Event_283: system.switch_cpus1 progress event, total committed:152563220, progress insts committed: 2734366, IPC: 0.273163
13899052537659: Event_284: system.switch_cpus2 progress event, total committed:152519724, progress insts committed: 2738044, IPC: 0.273531
13899052537659: Event_285: system.switch_cpus3 progress event, total committed:152506068, progress insts committed: 2747882, IPC: 0.274513
13902385870992: Event_285: system.switch_cpus3 progress event, total committed:155419300, progress insts committed: 2913232, IPC: 0.291032
13902385870992: Event_284: system.switch_cpus2 progress event, total committed:155436080, progress insts committed: 2916356, IPC: 0.291344
13902385870992: Event_283: system.switch_cpus1 progress event, total committed:155485382, progress insts committed: 2922162, IPC: 0.291924
13902385870992: Event_282: system.switch_cpus0 progress event, total committed:155458488, progress insts committed: 2911861, IPC: 0.290895
13905719204325: Event_282: system.switch_cpus0 progress event, total committed:158212437, progress insts committed: 2753949, IPC: 00.27512
13905719204325: Event_283: system.switch_cpus1 progress event, total committed:158229566, progress insts committed: 2744184, IPC: 0.274144
13905719204325: Event_284: system.switch_cpus2 progress event, total committed:158186888, progress insts committed: 2750808, IPC: 0.274806
13905719204325: Event_285: system.switch_cpus3 progress event, total committed:158164384, progress insts committed: 2745084, IPC: 0.274234
13909052537658: Event_285: system.switch_cpus3 progress event, total committed:160893770, progress insts committed: 2729386, IPC: 0.272666
13909052537658: Event_284: system.switch_cpus2 progress event, total committed:160918487, progress insts committed: 2731599, IPC: 0.272887
13909052537658: Event_283: system.switch_cpus1 progress event, total committed:160960941, progress insts committed: 2731375, IPC: 0.272864
13909052537658: Event_282: system.switch_cpus0 progress event, total committed:160944606, progress insts committed: 2732169, IPC: 0.272944
13912385870991: Event_282: system.switch_cpus0 progress event, total committed:163900461, progress insts committed: 2955855, IPC: 00.29529
13912385870991: Event_283: system.switch_cpus1 progress event, total committed:163922711, progress insts committed: 2961770, IPC: 0.295881
13912385870991: Event_284: system.switch_cpus2 progress event, total committed:163872552, progress insts committed: 2954065, IPC: 0.295111
13912385870991: Event_285: system.switch_cpus3 progress event, total committed:163857252, progress insts committed: 2963482, IPC: 0.296052
13915719204324: Event_285: system.switch_cpus3 progress event, total committed:166505420, progress insts committed: 2648168, IPC: 0.264552
13915719204324: Event_284: system.switch_cpus2 progress event, total committed:166534604, progress insts committed: 2662052, IPC: 0.265939
13915719204324: Event_283: system.switch_cpus1 progress event, total committed:166566044, progress insts committed: 2643333, IPC: 0.264069
13915719204324: Event_282: system.switch_cpus0 progress event, total committed:166549525, progress insts committed: 2649064, IPC: 0.264641
13919052537657: Event_282: system.switch_cpus0 progress event, total committed:168974601, progress insts committed: 2425076, IPC: 0.242265
13919052537657: Event_283: system.switch_cpus1 progress event, total committed:168986254, progress insts committed: 2420210, IPC: 0.241779
13919052537657: Event_284: system.switch_cpus2 progress event, total committed:168953469, progress insts committed: 2418865, IPC: 0.241645
13919052537657: Event_285: system.switch_cpus3 progress event, total committed:168932087, progress insts committed: 2426667, IPC: 0.242424
13922385870990: Event_285: system.switch_cpus3 progress event, total committed:170366036, progress insts committed: 1433949, IPC: 0.143252
13922385870990: Event_284: system.switch_cpus2 progress event, total committed:170366313, progress insts committed: 1412844, IPC: 0.141143
13922385870990: Event_283: system.switch_cpus1 progress event, total committed:170366856, progress insts committed: 1380602, IPC: 0.137922
13922385870990: Event_282: system.switch_cpus0 progress event, total committed:170366600, progress insts committed: 1391999, IPC: 0.139061
13925719204323: Event_282: system.switch_cpus0 progress event, total committed:170539554, progress insts committed: 172954, IPC: 0.0172781
13925719204323: Event_283: system.switch_cpus1 progress event, total committed:170539838, progress insts committed: 172982, IPC: 0.0172809
13925719204323: Event_284: system.switch_cpus2 progress event, total committed:170539317, progress insts committed: 173004, IPC: 0.0172831
13925719204323: Event_285: system.switch_cpus3 progress event, total committed:170539039, progress insts committed: 173003, IPC: 0.017283
13929052537656: Event_285: system.switch_cpus3 progress event, total committed:170712492, progress insts committed: 173453, IPC: 0.017328
13929052537656: Event_284: system.switch_cpus2 progress event, total committed:170712824, progress insts committed: 173507, IPC: 0.0173333
13929052537656: Event_283: system.switch_cpus1 progress event, total committed:170713290, progress insts committed: 173452, IPC: 0.0173279
13929052537656: Event_282: system.switch_cpus0 progress event, total committed:170713062, progress insts committed: 173508, IPC: 0.0173334
13932385870989: Event_282: system.switch_cpus0 progress event, total committed:170882728, progress insts committed: 169666, IPC: 0.0169496
13932385870989: Event_283: system.switch_cpus1 progress event, total committed:170883037, progress insts committed: 169747, IPC: 0.0169577
13932385870989: Event_284: system.switch_cpus2 progress event, total committed:170882473, progress insts committed: 169649, IPC: 0.0169479
13932385870989: Event_285: system.switch_cpus3 progress event, total committed:170882232, progress insts committed: 169740, IPC: 0.016957
13935719204322: Event_285: system.switch_cpus3 progress event, total committed:171053060, progress insts committed: 170828, IPC: 0.0170657
13935719204322: Event_284: system.switch_cpus2 progress event, total committed:171053341, progress insts committed: 170868, IPC: 0.0170697
13935719204322: Event_283: system.switch_cpus1 progress event, total committed:171053877, progress insts committed: 170840, IPC: 0.0170669
13935719204322: Event_282: system.switch_cpus0 progress event, total committed:171053587, progress insts committed: 170859, IPC: 0.0170688
13939052537655: Event_282: system.switch_cpus0 progress event, total committed:171232097, progress insts committed: 178510, IPC: 0.0178331
13939052537655: Event_283: system.switch_cpus1 progress event, total committed:171232380, progress insts committed: 178503, IPC: 0.0178324
13939052537655: Event_284: system.switch_cpus2 progress event, total committed:171231822, progress insts committed: 178481, IPC: 0.0178303
13939052537655: Event_285: system.switch_cpus3 progress event, total committed:171231570, progress insts committed: 178510, IPC: 0.0178331
13942385870988: Event_285: system.switch_cpus3 progress event, total committed:171410008, progress insts committed: 178438, IPC: 0.017826
13942385870988: Event_284: system.switch_cpus2 progress event, total committed:171410329, progress insts committed: 178507, IPC: 0.0178328
13942385870988: Event_283: system.switch_cpus1 progress event, total committed:171410850, progress insts committed: 178470, IPC: 0.0178292
13942385870988: Event_282: system.switch_cpus0 progress event, total committed:171410566, progress insts committed: 178469, IPC: 0.0178291
13945719204321: Event_282: system.switch_cpus0 progress event, total committed:173599654, progress insts committed: 2189088, IPC: 00.21869
13945719204321: Event_283: system.switch_cpus1 progress event, total committed:173621808, progress insts committed: 2210958, IPC: 0.220875
13945719204321: Event_284: system.switch_cpus2 progress event, total committed:173580046, progress insts committed: 2169717, IPC: 0.216755
13945719204321: Event_285: system.switch_cpus3 progress event, total committed:173559648, progress insts committed: 2149640, IPC: 0.214749
13949052537654: Event_285: system.switch_cpus3 progress event, total committed:175969655, progress insts committed: 2410007, IPC: 00.24076
13949052537654: Event_284: system.switch_cpus2 progress event, total committed:175986793, progress insts committed: 2406747, IPC: 0.240434
13949052537654: Event_283: system.switch_cpus1 progress event, total committed:176027841, progress insts committed: 2406033, IPC: 0.240363
13949052537654: Event_282: system.switch_cpus0 progress event, total committed:176005700, progress insts committed: 2406046, IPC: 0.240364
13952385870987: Event_282: system.switch_cpus0 progress event, total committed:178965862, progress insts committed: 2960162, IPC: 00.29572
13952385870987: Event_283: system.switch_cpus1 progress event, total committed:178999378, progress insts committed: 2971537, IPC: 0.296857
13952385870987: Event_284: system.switch_cpus2 progress event, total committed:178953700, progress insts committed: 2966907, IPC: 0.296394
13952385870987: Event_285: system.switch_cpus3 progress event, total committed:178932232, progress insts committed: 2962577, IPC: 0.295961
13955719204320: Event_285: system.switch_cpus3 progress event, total committed:181690251, progress insts committed: 2758019, IPC: 0.275526
13955719204320: Event_284: system.switch_cpus2 progress event, total committed:181720572, progress insts committed: 2766872, IPC: 0.276411
13955719204320: Event_283: system.switch_cpus1 progress event, total committed:181756862, progress insts committed: 2757484, IPC: 0.275473
13955719204320: Event_282: system.switch_cpus0 progress event, total committed:181733098, progress insts committed: 2767236, IPC: 0.276447
13959052537653: Event_282: system.switch_cpus0 progress event, total committed:184656683, progress insts committed: 2923585, IPC: 0.292066
13959052537653: Event_283: system.switch_cpus1 progress event, total committed:184680205, progress insts committed: 2923343, IPC: 0.292042
13959052537653: Event_284: system.switch_cpus2 progress event, total committed:184644734, progress insts committed: 2924162, IPC: 0.292124
13959052537653: Event_285: system.switch_cpus3 progress event, total committed:184612520, progress insts committed: 2922269, IPC: 0.291935
13962385870986: Event_285: system.switch_cpus3 progress event, total committed:187319288, progress insts committed: 2706768, IPC: 0.270406
13962385870986: Event_284: system.switch_cpus2 progress event, total committed:187346244, progress insts committed: 2701510, IPC: 0.269881
13962385870986: Event_283: system.switch_cpus1 progress event, total committed:187387498, progress insts committed: 2707293, IPC: 0.270459
13962385870986: Event_282: system.switch_cpus0 progress event, total committed:187360325, progress insts committed: 2703642, IPC: 0.270094
13965719204319: Event_282: system.switch_cpus0 progress event, total committed:190306582, progress insts committed: 2946257, IPC: 0.294331
13965719204319: Event_283: system.switch_cpus1 progress event, total committed:190322124, progress insts committed: 2934626, IPC: 0.293169
13965719204319: Event_284: system.switch_cpus2 progress event, total committed:190290332, progress insts committed: 2944088, IPC: 0.294114
13965719204319: Event_285: system.switch_cpus3 progress event, total committed:190262076, progress insts committed: 2942788, IPC: 0.293985
13969052537652: Event_285: system.switch_cpus3 progress event, total committed:193068080, progress insts committed: 2806004, IPC: 00.28032
13969052537652: Event_284: system.switch_cpus2 progress event, total committed:193095400, progress insts committed: 2805068, IPC: 0.280226
13969052537652: Event_283: system.switch_cpus1 progress event, total committed:193133872, progress insts committed: 2811748, IPC: 0.280894
13969052537652: Event_282: system.switch_cpus0 progress event, total committed:193112592, progress insts committed: 2806010, IPC: 00.28032
13972385870985: Event_282: system.switch_cpus0 progress event, total committed:196113721, progress insts committed: 3001129, IPC: 0.299813
13972385870985: Event_283: system.switch_cpus1 progress event, total committed:196126000, progress insts committed: 2992128, IPC: 0.298914
13972385870985: Event_284: system.switch_cpus2 progress event, total committed:196092970, progress insts committed: 2997570, IPC: 0.299457
13972385870985: Event_285: system.switch_cpus3 progress event, total committed:196070792, progress insts committed: 3002712, IPC: 0.299971
13975719204318: Event_285: system.switch_cpus3 progress event, total committed:198854441, progress insts committed: 2783649, IPC: 0.278087
13975719204318: Event_284: system.switch_cpus2 progress event, total committed:198889545, progress insts committed: 2796575, IPC: 0.279378
13975719204318: Event_283: system.switch_cpus1 progress event, total committed:198917200, progress insts committed: 2791200, IPC: 0.278841
13975719204318: Event_282: system.switch_cpus0 progress event, total committed:198906144, progress insts committed: 2792423, IPC: 0.278963
13979052537651: Event_282: system.switch_cpus0 progress event, total committed:201703322, progress insts committed: 2797178, IPC: 0.279438
13979052537651: Event_283: system.switch_cpus1 progress event, total committed:201720642, progress insts committed: 2803442, IPC: 0.280064
13979052537651: Event_284: system.switch_cpus2 progress event, total committed:201687188, progress insts committed: 2797643, IPC: 0.279485
13979052537651: Event_285: system.switch_cpus3 progress event, total committed:201660661, progress insts committed: 2806220, IPC: 0.280341
13982385870984: Event_285: system.switch_cpus3 progress event, total committed:204665570, progress insts committed: 3004909, IPC: 00.30019
13982385870984: Event_284: system.switch_cpus2 progress event, total committed:204694951, progress insts committed: 3007763, IPC: 0.300476
13982385870984: Event_283: system.switch_cpus1 progress event, total committed:204725074, progress insts committed: 3004432, IPC: 0.300143
13982385870984: Event_282: system.switch_cpus0 progress event, total committed:204717172, progress insts committed: 3013850, IPC: 0.301084
13985719204317: Event_282: system.switch_cpus0 progress event, total committed:207559815, progress insts committed: 2842643, IPC: 00.28398
13985719204317: Event_283: system.switch_cpus1 progress event, total committed:207572870, progress insts committed: 2847796, IPC: 0.284495
13985719204317: Event_284: system.switch_cpus2 progress event, total committed:207541368, progress insts committed: 2846417, IPC: 0.284357
13985719204317: Event_285: system.switch_cpus3 progress event, total committed:207513949, progress insts committed: 2848379, IPC: 0.284553
13989052537650: Event_285: system.switch_cpus3 progress event, total committed:210579848, progress insts committed: 3065899, IPC: 0.306283
13989052537650: Event_284: system.switch_cpus2 progress event, total committed:210590844, progress insts committed: 3049476, IPC: 0.304643
13989052537650: Event_283: system.switch_cpus1 progress event, total committed:210632952, progress insts committed: 3060082, IPC: 0.305702
13989052537650: Event_282: system.switch_cpus0 progress event, total committed:210625714, progress insts committed: 3065899, IPC: 0.306283
13992385870983: Event_282: system.switch_cpus0 progress event, total committed:213518600, progress insts committed: 2892886, IPC: 0.288999
13992385870983: Event_283: system.switch_cpus1 progress event, total committed:213531971, progress insts committed: 2899019, IPC: 0.289612
13992385870983: Event_284: system.switch_cpus2 progress event, total committed:213489052, progress insts committed: 2898208, IPC: 0.289531
13992385870983: Event_285: system.switch_cpus3 progress event, total committed:213473624, progress insts committed: 2893776, IPC: 0.289088
13995719204316: Event_285: system.switch_cpus3 progress event, total committed:216576832, progress insts committed: 3103208, IPC: 00.31001
13995719204316: Event_284: system.switch_cpus2 progress event, total committed:216590135, progress insts committed: 3101083, IPC: 0.309798
13995719204316: Event_283: system.switch_cpus1 progress event, total committed:216637352, progress insts committed: 3105381, IPC: 0.310228
13995719204316: Event_282: system.switch_cpus0 progress event, total committed:216612593, progress insts committed: 3093993, IPC: 00.30909
13999052537649: Event_282: system.switch_cpus0 progress event, total committed:219414601, progress insts committed: 2802008, IPC: 0.279921
13999052537649: Event_283: system.switch_cpus1 progress event, total committed:219444103, progress insts committed: 2806751, IPC: 0.280394
13999052537649: Event_284: system.switch_cpus2 progress event, total committed:219398527, progress insts committed: 2808392, IPC: 0.280558
13999052537649: Event_285: system.switch_cpus3 progress event, total committed:219383099, progress insts committed: 2806267, IPC: 0.280346
14002385870982: Event_285: system.switch_cpus3 progress event, total committed:222208551, progress insts committed: 2825452, IPC: 0.282263
14002385870982: Event_284: system.switch_cpus2 progress event, total committed:222222383, progress insts committed: 2823856, IPC: 0.282103
14002385870982: Event_283: system.switch_cpus1 progress event, total committed:222267185, progress insts committed: 2823082, IPC: 0.282026
14002385870982: Event_282: system.switch_cpus0 progress event, total committed:222235797, progress insts committed: 2821196, IPC: 0.281837
14005719204315: Event_282: system.switch_cpus0 progress event, total committed:225068202, progress insts committed: 2832405, IPC: 0.282957
14005719204315: Event_283: system.switch_cpus1 progress event, total committed:225093530, progress insts committed: 2826345, IPC: 0.282352
14005719204315: Event_284: system.switch_cpus2 progress event, total committed:225052477, progress insts committed: 2830094, IPC: 0.282726
14005719204315: Event_285: system.switch_cpus3 progress event, total committed:225042054, progress insts committed: 2833503, IPC: 0.283067
14009052537648: Event_285: system.switch_cpus3 progress event, total committed:227842146, progress insts committed: 2800092, IPC: 0.279729
14009052537648: Event_284: system.switch_cpus2 progress event, total committed:227848818, progress insts committed: 2796341, IPC: 0.279354
14009052537648: Event_283: system.switch_cpus1 progress event, total committed:227893864, progress insts committed: 2800334, IPC: 0.279753
14009052537648: Event_282: system.switch_cpus0 progress event, total committed:227856624, progress insts committed: 2788422, IPC: 0.278563
14012385870981: Event_282: system.switch_cpus0 progress event, total committed:230511931, progress insts committed: 2655307, IPC: 0.265265
14012385870981: Event_283: system.switch_cpus1 progress event, total committed:230529305, progress insts committed: 2635441, IPC: 0.263281
14012385870981: Event_284: system.switch_cpus2 progress event, total committed:230506611, progress insts committed: 2657793, IPC: 0.265514
14012385870981: Event_285: system.switch_cpus3 progress event, total committed:230503132, progress insts committed: 2660986, IPC: 0.265833
14015719204314: Event_285: system.switch_cpus3 progress event, total committed:233265691, progress insts committed: 2762559, IPC: 00.27598
14015719204314: Event_284: system.switch_cpus2 progress event, total committed:233270256, progress insts committed: 2763645, IPC: 0.276088
14015719204314: Event_283: system.switch_cpus1 progress event, total committed:233272694, progress insts committed: 2743389, IPC: 0.274065
14015719204314: Event_282: system.switch_cpus0 progress event, total committed:233271877, progress insts committed: 2759946, IPC: 0.275719
14019052537647: Event_282: system.switch_cpus0 progress event, total committed:235933220, progress insts committed: 2661343, IPC: 0.265868
14019052537647: Event_283: system.switch_cpus1 progress event, total committed:235936125, progress insts committed: 2663431, IPC: 0.266077
14019052537647: Event_284: system.switch_cpus2 progress event, total committed:235923112, progress insts committed: 2652856, IPC: 00.26502
14019052537647: Event_285: system.switch_cpus3 progress event, total committed:235911091, progress insts committed: 2645400, IPC: 0.264275
14022385870980: Event_285: system.switch_cpus3 progress event, total committed:238422537, progress insts committed: 2511446, IPC: 0.250893
14022385870980: Event_284: system.switch_cpus2 progress event, total committed:238422807, progress insts committed: 2499695, IPC: 00.24972
14022385870980: Event_283: system.switch_cpus1 progress event, total committed:238457928, progress insts committed: 2521803, IPC: 0.251928
14022385870980: Event_282: system.switch_cpus0 progress event, total committed:238453719, progress insts committed: 2520499, IPC: 0.251798
14025719204313: Event_282: system.switch_cpus0 progress event, total committed:241137225, progress insts committed: 2683506, IPC: 0.268082
14025719204313: Event_283: system.switch_cpus1 progress event, total committed:241138289, progress insts committed: 2680361, IPC: 0.267768
14025719204313: Event_284: system.switch_cpus2 progress event, total committed:241093675, progress insts committed: 2670868, IPC: 00.26682
14025719204313: Event_285: system.switch_cpus3 progress event, total committed:241093277, progress insts committed: 2670740, IPC: 0.266807
14029052537646: Event_285: system.switch_cpus3 progress event, total committed:243418722, progress insts committed: 2325445, IPC: 0.232312
14029052537646: Event_284: system.switch_cpus2 progress event, total committed:243418719, progress insts committed: 2325044, IPC: 0.232272
14029052537646: Event_283: system.switch_cpus1 progress event, total committed:243446479, progress insts committed: 2308190, IPC: 0.230588
14029052537646: Event_282: system.switch_cpus0 progress event, total committed:243444338, progress insts committed: 2307113, IPC: 0.230481
14032385870979: Event_282: system.switch_cpus0 progress event, total committed:246170306, progress insts committed: 2725968, IPC: 0.272324
14032385870979: Event_283: system.switch_cpus1 progress event, total committed:246174087, progress insts committed: 2727608, IPC: 0.272488
14032385870979: Event_284: system.switch_cpus2 progress event, total committed:246130365, progress insts committed: 2711646, IPC: 0.270893
14032385870979: Event_285: system.switch_cpus3 progress event, total committed:246130651, progress insts committed: 2711929, IPC: 0.270922
14035719204312: Event_285: system.switch_cpus3 progress event, total committed:248345394, progress insts committed: 2214743, IPC: 0.221253
14035719204312: Event_284: system.switch_cpus2 progress event, total committed:248344850, progress insts committed: 2214485, IPC: 0.221227
14035719204312: Event_283: system.switch_cpus1 progress event, total committed:248366967, progress insts committed: 2192880, IPC: 0.219069
14035719204312: Event_282: system.switch_cpus0 progress event, total committed:248360092, progress insts committed: 2189786, IPC: 00.21876
14039052537645: Event_282: system.switch_cpus0 progress event, total committed:251135457, progress insts committed: 2775365, IPC: 0.277259
14039052537645: Event_283: system.switch_cpus1 progress event, total committed:251142131, progress insts committed: 2775164, IPC: 0.277239
14039052537645: Event_284: system.switch_cpus2 progress event, total committed:251108615, progress insts committed: 2763765, IPC: 000.2761
14039052537645: Event_285: system.switch_cpus3 progress event, total committed:251108857, progress insts committed: 2763463, IPC: 00.27607
14042385870978: Event_285: system.switch_cpus3 progress event, total committed:253192381, progress insts committed: 2083524, IPC: 0.208144
14042385870978: Event_284: system.switch_cpus2 progress event, total committed:253192354, progress insts committed: 2083739, IPC: 0.208166
14042385870978: Event_283: system.switch_cpus1 progress event, total committed:253192810, progress insts committed: 2050679, IPC: 0.204863
14042385870978: Event_282: system.switch_cpus0 progress event, total committed:253192862, progress insts committed: 2057405, IPC: 0.205535
14045719204311: Event_282: system.switch_cpus0 progress event, total committed:256046738, progress insts committed: 2853876, IPC: 0.285102
14045719204311: Event_283: system.switch_cpus1 progress event, total committed:256046487, progress insts committed: 2853677, IPC: 0.285082
14045719204311: Event_284: system.switch_cpus2 progress event, total committed:256005466, progress insts committed: 2813112, IPC: 00.28103
14045719204311: Event_285: system.switch_cpus3 progress event, total committed:256006239, progress insts committed: 2813858, IPC: 0.281104
14049052537644: Event_285: system.switch_cpus3 progress event, total committed:257973188, progress insts committed: 1966949, IPC: 0.196498
14049052537644: Event_284: system.switch_cpus2 progress event, total committed:257973181, progress insts committed: 1967715, IPC: 0.196575
14049052537644: Event_283: system.switch_cpus1 progress event, total committed:258001661, progress insts committed: 1955174, IPC: 0.195322
14049052537644: Event_282: system.switch_cpus0 progress event, total committed:257999820, progress insts committed: 1953082, IPC: 0.195113
14052385870977: Event_282: system.switch_cpus0 progress event, total committed:260840194, progress insts committed: 2840374, IPC: 0.283753
14052385870977: Event_283: system.switch_cpus1 progress event, total committed:260840203, progress insts committed: 2838542, IPC: 00.28357
14052385870977: Event_284: system.switch_cpus2 progress event, total committed:260839712, progress insts committed: 2866531, IPC: 0.286366
14052385870977: Event_285: system.switch_cpus3 progress event, total committed:260839787, progress insts committed: 2866599, IPC: 0.286373
14055719204310: Event_285: system.switch_cpus3 progress event, total committed:262720216, progress insts committed: 1880429, IPC: 0.187855
14055719204310: Event_284: system.switch_cpus2 progress event, total committed:262720216, progress insts committed: 1880504, IPC: 0.187862
14055719204310: Event_283: system.switch_cpus1 progress event, total committed:262736805, progress insts committed: 1896602, IPC: 0.189471
14055719204310: Event_282: system.switch_cpus0 progress event, total committed:262736524, progress insts committed: 1896330, IPC: 0.189443
14059052537643: Event_282: system.switch_cpus0 progress event, total committed:265504796, progress insts committed: 2768272, IPC: 00.27655
14059052537643: Event_283: system.switch_cpus1 progress event, total committed:265504796, progress insts committed: 2767991, IPC: 0.276522
14059052537643: Event_284: system.switch_cpus2 progress event, total committed:265504354, progress insts committed: 2784138, IPC: 0.278135
14059052537643: Event_285: system.switch_cpus3 progress event, total committed:265504382, progress insts committed: 2784166, IPC: 0.278138
14062385870976: Event_285: system.switch_cpus3 progress event, total committed:267397182, progress insts committed: 1892800, IPC: 0.189091
14062385870976: Event_284: system.switch_cpus2 progress event, total committed:267399310, progress insts committed: 1894956, IPC: 0.189306
14062385870976: Event_283: system.switch_cpus1 progress event, total committed:267427620, progress insts committed: 1922824, IPC: 00.19209
14062385870976: Event_282: system.switch_cpus0 progress event, total committed:267429418, progress insts committed: 1924622, IPC: 00.19227
14065719204309: Event_282: system.switch_cpus0 progress event, total committed:270129175, progress insts committed: 2699757, IPC: 0.269706
14065719204309: Event_283: system.switch_cpus1 progress event, total committed:270128679, progress insts committed: 2701059, IPC: 0.269836
14065719204309: Event_284: system.switch_cpus2 progress event, total committed:270125808, progress insts committed: 2726498, IPC: 0.272377
14065719204309: Event_285: system.switch_cpus3 progress event, total committed:270125808, progress insts committed: 2728626, IPC: 00.27259
14069052537642: Event_285: system.switch_cpus3 progress event, total committed:272038358, progress insts committed: 1912550, IPC: 0.191064
14069052537642: Event_284: system.switch_cpus2 progress event, total committed:272027139, progress insts committed: 1901331, IPC: 0.189943
14069052537642: Event_283: system.switch_cpus1 progress event, total committed:272064527, progress insts committed: 1935848, IPC: 0.193391
14069052537642: Event_282: system.switch_cpus0 progress event, total committed:272064313, progress insts committed: 1935138, IPC: 00.19332
14072385870975: Event_282: system.switch_cpus0 progress event, total committed:274859294, progress insts committed: 2794981, IPC: 0.279219
14072385870975: Event_283: system.switch_cpus1 progress event, total committed:274859597, progress insts committed: 2795070, IPC: 0.279227
14072385870975: Event_284: system.switch_cpus2 progress event, total committed:274819570, progress insts committed: 2792431, IPC: 0.278964
14072385870975: Event_285: system.switch_cpus3 progress event, total committed:274822954, progress insts committed: 2784596, IPC: 0.278181
Exiting @ tick 14072735929914 because a thread reached the max instruction count
