
---------- Begin Simulation Statistics ----------
final_tick                               14072735929914                       # Number of ticks from beginning of simulation (restored from checkpoints and never reset)
host_inst_rate                                  83783                       # Simulator instruction rate (inst/s)
host_mem_usage                               17296284                       # Number of bytes of host memory used
host_op_rate                                    92220                       # Simulator op (including micro ops) rate (op/s)
host_seconds                                 11934.77                       # Real time elapsed on the host
host_tick_rate                               29634694                       # Simulator tick rate (ticks/s)
sim_freq                                 1000000000000                       # Frequency of simulated ticks
sim_insts                                   999926998                       # Number of instructions simulated
sim_ops                                    1100621751                       # Number of ops (including micro ops) simulated
sim_seconds                                  0.353683                       # Number of seconds simulated
sim_ticks                                353683392237                       # Number of ticks simulated
system.cpu0.committedInsts                         19                       # Number of instructions committed
system.cpu0.committedOps                           21                       # Number of ops (including micro ops) committed
system.cpu0.idle_fraction                           0                       # Percentage of idle cycles
system.cpu0.l2bus.snoop_filter.hit_multi_requests            0                       # Number of requests hitting in the snoop filter with multiple (>1) holders of the requested data.
system.cpu0.l2bus.snoop_filter.hit_multi_snoops            0                       # Number of snoops hitting in the snoop filter with multiple (>1) holders of the requested data.
system.cpu0.l2bus.snoop_filter.hit_single_requests     12664104                       # Number of requests hitting in the snoop filter with a single holder of the requested data.
system.cpu0.l2bus.snoop_filter.hit_single_snoops      4664617                       # Number of snoops hitting in the snoop filter with a single holder of the requested data.
system.cpu0.l2bus.snoop_filter.tot_requests     21976299                       # Total number of requests made to the snoop filter.
system.cpu0.l2bus.snoop_filter.tot_snoops      4664617                       # Total number of snoops made to the snoop filter.
system.cpu0.mmucache.mmubus.snoop_filter.hit_multi_requests            0                       # Number of requests hitting in the snoop filter with multiple (>1) holders of the requested data.
system.cpu0.mmucache.mmubus.snoop_filter.hit_multi_snoops            0                       # Number of snoops hitting in the snoop filter with multiple (>1) holders of the requested data.
system.cpu0.mmucache.mmubus.snoop_filter.hit_single_requests            0                       # Number of requests hitting in the snoop filter with a single holder of the requested data.
system.cpu0.mmucache.mmubus.snoop_filter.hit_single_snoops            0                       # Number of snoops hitting in the snoop filter with a single holder of the requested data.
system.cpu0.mmucache.mmubus.snoop_filter.tot_requests            0                       # Total number of requests made to the snoop filter.
system.cpu0.mmucache.mmubus.snoop_filter.tot_snoops            0                       # Total number of snoops made to the snoop filter.
system.cpu0.not_idle_fraction                       1                       # Percentage of non-idle cycles
system.cpu0.numCycles                              31                       # number of cpu cycles simulated
system.cpu0.numWorkItemsCompleted                   0                       # number of work items this cpu completed
system.cpu0.numWorkItemsStarted                     0                       # number of work items this cpu started
system.cpu0.num_busy_cycles                        31                       # Number of busy cycles
system.cpu0.num_conditional_control_insts            0                       # number of instructions that are conditional controls
system.cpu0.num_fp_alu_accesses                    20                       # Number of float alu accesses
system.cpu0.num_fp_insts                           20                       # number of float instructions
system.cpu0.num_fp_register_reads                  54                       # number of times the floating registers were read
system.cpu0.num_fp_register_writes                 20                       # number of times the floating registers were written
system.cpu0.num_func_calls                          0                       # number of times a function call or return occured
system.cpu0.num_idle_cycles                         0                       # Number of idle cycles
system.cpu0.num_int_alu_accesses                    2                       # Number of integer alu accesses
system.cpu0.num_int_insts                           2                       # number of integer instructions
system.cpu0.num_int_register_reads                  4                       # number of times the integer registers were read
system.cpu0.num_int_register_writes                 1                       # number of times the integer registers were written
system.cpu0.num_load_insts                          1                       # Number of load instructions
system.cpu0.num_mem_refs                            1                       # number of memory refs
system.cpu0.num_store_insts                         0                       # Number of store instructions
system.cpu0.num_vec_alu_accesses                    0                       # Number of vector alu accesses
system.cpu0.num_vec_insts                           0                       # number of vector instructions
system.cpu0.num_vec_register_reads                  0                       # number of times the vector registers were read
system.cpu0.num_vec_register_writes                 0                       # number of times the vector registers were written
system.cpu0.op_class::No_OpClass                    0      0.00%      0.00% # Class of executed instruction
system.cpu0.op_class::IntAlu                        4     19.05%     19.05% # Class of executed instruction
system.cpu0.op_class::IntMult                       0      0.00%     19.05% # Class of executed instruction
system.cpu0.op_class::IntDiv                        0      0.00%     19.05% # Class of executed instruction
system.cpu0.op_class::FloatAdd                      0      0.00%     19.05% # Class of executed instruction
system.cpu0.op_class::FloatCmp                      0      0.00%     19.05% # Class of executed instruction
system.cpu0.op_class::FloatCvt                      0      0.00%     19.05% # Class of executed instruction
system.cpu0.op_class::FloatMult                     0      0.00%     19.05% # Class of executed instruction
system.cpu0.op_class::FloatMultAcc                  0      0.00%     19.05% # Class of executed instruction
system.cpu0.op_class::FloatDiv                      0      0.00%     19.05% # Class of executed instruction
system.cpu0.op_class::FloatMisc                     0      0.00%     19.05% # Class of executed instruction
system.cpu0.op_class::FloatSqrt                     0      0.00%     19.05% # Class of executed instruction
system.cpu0.op_class::SimdAdd                       0      0.00%     19.05% # Class of executed instruction
system.cpu0.op_class::SimdAddAcc                    0      0.00%     19.05% # Class of executed instruction
system.cpu0.op_class::SimdAlu                       0      0.00%     19.05% # Class of executed instruction
system.cpu0.op_class::SimdCmp                       0      0.00%     19.05% # Class of executed instruction
system.cpu0.op_class::SimdCvt                       0      0.00%     19.05% # Class of executed instruction
system.cpu0.op_class::SimdMisc                      0      0.00%     19.05% # Class of executed instruction
system.cpu0.op_class::SimdMult                      0      0.00%     19.05% # Class of executed instruction
system.cpu0.op_class::SimdMultAcc                   0      0.00%     19.05% # Class of executed instruction
system.cpu0.op_class::SimdShift                     0      0.00%     19.05% # Class of executed instruction
system.cpu0.op_class::SimdShiftAcc                  0      0.00%     19.05% # Class of executed instruction
system.cpu0.op_class::SimdDiv                       0      0.00%     19.05% # Class of executed instruction
system.cpu0.op_class::SimdSqrt                      0      0.00%     19.05% # Class of executed instruction
system.cpu0.op_class::SimdFloatAdd                  7     33.33%     52.38% # Class of executed instruction
system.cpu0.op_class::SimdFloatAlu                  0      0.00%     52.38% # Class of executed instruction
system.cpu0.op_class::SimdFloatCmp                  0      0.00%     52.38% # Class of executed instruction
system.cpu0.op_class::SimdFloatCvt                  0      0.00%     52.38% # Class of executed instruction
system.cpu0.op_class::SimdFloatDiv                  0      0.00%     52.38% # Class of executed instruction
system.cpu0.op_class::SimdFloatMisc                 0      0.00%     52.38% # Class of executed instruction
system.cpu0.op_class::SimdFloatMult                 9     42.86%     95.24% # Class of executed instruction
system.cpu0.op_class::SimdFloatMultAcc              0      0.00%     95.24% # Class of executed instruction
system.cpu0.op_class::SimdFloatSqrt                 0      0.00%     95.24% # Class of executed instruction
system.cpu0.op_class::SimdReduceAdd                 0      0.00%     95.24% # Class of executed instruction
system.cpu0.op_class::SimdReduceAlu                 0      0.00%     95.24% # Class of executed instruction
system.cpu0.op_class::SimdReduceCmp                 0      0.00%     95.24% # Class of executed instruction
system.cpu0.op_class::SimdFloatReduceAdd            0      0.00%     95.24% # Class of executed instruction
system.cpu0.op_class::SimdFloatReduceCmp            0      0.00%     95.24% # Class of executed instruction
system.cpu0.op_class::SimdAes                       0      0.00%     95.24% # Class of executed instruction
system.cpu0.op_class::SimdAesMix                    0      0.00%     95.24% # Class of executed instruction
system.cpu0.op_class::SimdSha1Hash                  0      0.00%     95.24% # Class of executed instruction
system.cpu0.op_class::SimdSha1Hash2                 0      0.00%     95.24% # Class of executed instruction
system.cpu0.op_class::SimdSha256Hash                0      0.00%     95.24% # Class of executed instruction
system.cpu0.op_class::SimdSha256Hash2               0      0.00%     95.24% # Class of executed instruction
system.cpu0.op_class::SimdShaSigma2                 0      0.00%     95.24% # Class of executed instruction
system.cpu0.op_class::SimdShaSigma3                 0      0.00%     95.24% # Class of executed instruction
system.cpu0.op_class::SimdPredAlu                   0      0.00%     95.24% # Class of executed instruction
system.cpu0.op_class::MemRead                       0      0.00%     95.24% # Class of executed instruction
system.cpu0.op_class::MemWrite                      0      0.00%     95.24% # Class of executed instruction
system.cpu0.op_class::FloatMemRead                  1      4.76%    100.00% # Class of executed instruction
system.cpu0.op_class::FloatMemWrite                 0      0.00%    100.00% # Class of executed instruction
system.cpu0.op_class::IprAccess                     0      0.00%    100.00% # Class of executed instruction
system.cpu0.op_class::InstPrefetch                  0      0.00%    100.00% # Class of executed instruction
system.cpu0.op_class::total                        21                       # Class of executed instruction
system.cpu0.workload.numSyscalls                    0                       # Number of system calls
system.cpu1.committedInsts                         19                       # Number of instructions committed
system.cpu1.committedOps                           21                       # Number of ops (including micro ops) committed
system.cpu1.idle_fraction                           0                       # Percentage of idle cycles
system.cpu1.l2bus.snoop_filter.hit_multi_requests            0                       # Number of requests hitting in the snoop filter with multiple (>1) holders of the requested data.
system.cpu1.l2bus.snoop_filter.hit_multi_snoops            0                       # Number of snoops hitting in the snoop filter with multiple (>1) holders of the requested data.
system.cpu1.l2bus.snoop_filter.hit_single_requests     12663983                       # Number of requests hitting in the snoop filter with a single holder of the requested data.
system.cpu1.l2bus.snoop_filter.hit_single_snoops      4655515                       # Number of snoops hitting in the snoop filter with a single holder of the requested data.
system.cpu1.l2bus.snoop_filter.tot_requests     21976228                       # Total number of requests made to the snoop filter.
system.cpu1.l2bus.snoop_filter.tot_snoops      4655515                       # Total number of snoops made to the snoop filter.
system.cpu1.mmucache.mmubus.snoop_filter.hit_multi_requests            0                       # Number of requests hitting in the snoop filter with multiple (>1) holders of the requested data.
system.cpu1.mmucache.mmubus.snoop_filter.hit_multi_snoops            0                       # Number of snoops hitting in the snoop filter with multiple (>1) holders of the requested data.
system.cpu1.mmucache.mmubus.snoop_filter.hit_single_requests            0                       # Number of requests hitting in the snoop filter with a single holder of the requested data.
system.cpu1.mmucache.mmubus.snoop_filter.hit_single_snoops            0                       # Number of snoops hitting in the snoop filter with a single holder of the requested data.
system.cpu1.mmucache.mmubus.snoop_filter.tot_requests            0                       # Total number of requests made to the snoop filter.
system.cpu1.mmucache.mmubus.snoop_filter.tot_snoops            0                       # Total number of snoops made to the snoop filter.
system.cpu1.not_idle_fraction                       1                       # Percentage of non-idle cycles
system.cpu1.numCycles                              31                       # number of cpu cycles simulated
system.cpu1.numWorkItemsCompleted                   0                       # number of work items this cpu completed
system.cpu1.numWorkItemsStarted                     0                       # number of work items this cpu started
system.cpu1.num_busy_cycles                        31                       # Number of busy cycles
system.cpu1.num_conditional_control_insts            0                       # number of instructions that are conditional controls
system.cpu1.num_fp_alu_accesses                    20                       # Number of float alu accesses
system.cpu1.num_fp_insts                           20                       # number of float instructions
system.cpu1.num_fp_register_reads                  54                       # number of times the floating registers were read
system.cpu1.num_fp_register_writes                 20                       # number of times the floating registers were written
system.cpu1.num_func_calls                          0                       # number of times a function call or return occured
system.cpu1.num_idle_cycles                         0                       # Number of idle cycles
system.cpu1.num_int_alu_accesses                    2                       # Number of integer alu accesses
system.cpu1.num_int_insts                           2                       # number of integer instructions
system.cpu1.num_int_register_reads                  4                       # number of times the integer registers were read
system.cpu1.num_int_register_writes                 1                       # number of times the integer registers were written
system.cpu1.num_load_insts                          1                       # Number of load instructions
system.cpu1.num_mem_refs                            1                       # number of memory refs
system.cpu1.num_store_insts                         0                       # Number of store instructions
system.cpu1.num_vec_alu_accesses                    0                       # Number of vector alu accesses
system.cpu1.num_vec_insts                           0                       # number of vector instructions
system.cpu1.num_vec_register_reads                  0                       # number of times the vector registers were read
system.cpu1.num_vec_register_writes                 0                       # number of times the vector registers were written
system.cpu1.op_class::No_OpClass                    0      0.00%      0.00% # Class of executed instruction
system.cpu1.op_class::IntAlu                        4     19.05%     19.05% # Class of executed instruction
system.cpu1.op_class::IntMult                       0      0.00%     19.05% # Class of executed instruction
system.cpu1.op_class::IntDiv                        0      0.00%     19.05% # Class of executed instruction
system.cpu1.op_class::FloatAdd                      0      0.00%     19.05% # Class of executed instruction
system.cpu1.op_class::FloatCmp                      0      0.00%     19.05% # Class of executed instruction
system.cpu1.op_class::FloatCvt                      0      0.00%     19.05% # Class of executed instruction
system.cpu1.op_class::FloatMult                     0      0.00%     19.05% # Class of executed instruction
system.cpu1.op_class::FloatMultAcc                  0      0.00%     19.05% # Class of executed instruction
system.cpu1.op_class::FloatDiv                      0      0.00%     19.05% # Class of executed instruction
system.cpu1.op_class::FloatMisc                     0      0.00%     19.05% # Class of executed instruction
system.cpu1.op_class::FloatSqrt                     0      0.00%     19.05% # Class of executed instruction
system.cpu1.op_class::SimdAdd                       0      0.00%     19.05% # Class of executed instruction
system.cpu1.op_class::SimdAddAcc                    0      0.00%     19.05% # Class of executed instruction
system.cpu1.op_class::SimdAlu                       0      0.00%     19.05% # Class of executed instruction
system.cpu1.op_class::SimdCmp                       0      0.00%     19.05% # Class of executed instruction
system.cpu1.op_class::SimdCvt                       0      0.00%     19.05% # Class of executed instruction
system.cpu1.op_class::SimdMisc                      0      0.00%     19.05% # Class of executed instruction
system.cpu1.op_class::SimdMult                      0      0.00%     19.05% # Class of executed instruction
system.cpu1.op_class::SimdMultAcc                   0      0.00%     19.05% # Class of executed instruction
system.cpu1.op_class::SimdShift                     0      0.00%     19.05% # Class of executed instruction
system.cpu1.op_class::SimdShiftAcc                  0      0.00%     19.05% # Class of executed instruction
system.cpu1.op_class::SimdDiv                       0      0.00%     19.05% # Class of executed instruction
system.cpu1.op_class::SimdSqrt                      0      0.00%     19.05% # Class of executed instruction
system.cpu1.op_class::SimdFloatAdd                  7     33.33%     52.38% # Class of executed instruction
system.cpu1.op_class::SimdFloatAlu                  0      0.00%     52.38% # Class of executed instruction
system.cpu1.op_class::SimdFloatCmp                  0      0.00%     52.38% # Class of executed instruction
system.cpu1.op_class::SimdFloatCvt                  0      0.00%     52.38% # Class of executed instruction
system.cpu1.op_class::SimdFloatDiv                  0      0.00%     52.38% # Class of executed instruction
system.cpu1.op_class::SimdFloatMisc                 0      0.00%     52.38% # Class of executed instruction
system.cpu1.op_class::SimdFloatMult                 9     42.86%     95.24% # Class of executed instruction
system.cpu1.op_class::SimdFloatMultAcc              0      0.00%     95.24% # Class of executed instruction
system.cpu1.op_class::SimdFloatSqrt                 0      0.00%     95.24% # Class of executed instruction
system.cpu1.op_class::SimdReduceAdd                 0      0.00%     95.24% # Class of executed instruction
system.cpu1.op_class::SimdReduceAlu                 0      0.00%     95.24% # Class of executed instruction
system.cpu1.op_class::SimdReduceCmp                 0      0.00%     95.24% # Class of executed instruction
system.cpu1.op_class::SimdFloatReduceAdd            0      0.00%     95.24% # Class of executed instruction
system.cpu1.op_class::SimdFloatReduceCmp            0      0.00%     95.24% # Class of executed instruction
system.cpu1.op_class::SimdAes                       0      0.00%     95.24% # Class of executed instruction
system.cpu1.op_class::SimdAesMix                    0      0.00%     95.24% # Class of executed instruction
system.cpu1.op_class::SimdSha1Hash                  0      0.00%     95.24% # Class of executed instruction
system.cpu1.op_class::SimdSha1Hash2                 0      0.00%     95.24% # Class of executed instruction
system.cpu1.op_class::SimdSha256Hash                0      0.00%     95.24% # Class of executed instruction
system.cpu1.op_class::SimdSha256Hash2               0      0.00%     95.24% # Class of executed instruction
system.cpu1.op_class::SimdShaSigma2                 0      0.00%     95.24% # Class of executed instruction
system.cpu1.op_class::SimdShaSigma3                 0      0.00%     95.24% # Class of executed instruction
system.cpu1.op_class::SimdPredAlu                   0      0.00%     95.24% # Class of executed instruction
system.cpu1.op_class::MemRead                       0      0.00%     95.24% # Class of executed instruction
system.cpu1.op_class::MemWrite                      0      0.00%     95.24% # Class of executed instruction
system.cpu1.op_class::FloatMemRead                  1      4.76%    100.00% # Class of executed instruction
system.cpu1.op_class::FloatMemWrite                 0      0.00%    100.00% # Class of executed instruction
system.cpu1.op_class::IprAccess                     0      0.00%    100.00% # Class of executed instruction
system.cpu1.op_class::InstPrefetch                  0      0.00%    100.00% # Class of executed instruction
system.cpu1.op_class::total                        21                       # Class of executed instruction
system.cpu1.workload.numSyscalls                    0                       # Number of system calls
system.cpu2.committedInsts                         19                       # Number of instructions committed
system.cpu2.committedOps                           21                       # Number of ops (including micro ops) committed
system.cpu2.idle_fraction                           0                       # Percentage of idle cycles
system.cpu2.l2bus.snoop_filter.hit_multi_requests            0                       # Number of requests hitting in the snoop filter with multiple (>1) holders of the requested data.
system.cpu2.l2bus.snoop_filter.hit_multi_snoops            0                       # Number of snoops hitting in the snoop filter with multiple (>1) holders of the requested data.
system.cpu2.l2bus.snoop_filter.hit_single_requests     12662163                       # Number of requests hitting in the snoop filter with a single holder of the requested data.
system.cpu2.l2bus.snoop_filter.hit_single_snoops      4662198                       # Number of snoops hitting in the snoop filter with a single holder of the requested data.
system.cpu2.l2bus.snoop_filter.tot_requests     21973101                       # Total number of requests made to the snoop filter.
system.cpu2.l2bus.snoop_filter.tot_snoops      4662198                       # Total number of snoops made to the snoop filter.
system.cpu2.mmucache.mmubus.snoop_filter.hit_multi_requests            0                       # Number of requests hitting in the snoop filter with multiple (>1) holders of the requested data.
system.cpu2.mmucache.mmubus.snoop_filter.hit_multi_snoops            0                       # Number of snoops hitting in the snoop filter with multiple (>1) holders of the requested data.
system.cpu2.mmucache.mmubus.snoop_filter.hit_single_requests            0                       # Number of requests hitting in the snoop filter with a single holder of the requested data.
system.cpu2.mmucache.mmubus.snoop_filter.hit_single_snoops            0                       # Number of snoops hitting in the snoop filter with a single holder of the requested data.
system.cpu2.mmucache.mmubus.snoop_filter.tot_requests            0                       # Total number of requests made to the snoop filter.
system.cpu2.mmucache.mmubus.snoop_filter.tot_snoops            0                       # Total number of snoops made to the snoop filter.
system.cpu2.not_idle_fraction                       1                       # Percentage of non-idle cycles
system.cpu2.numCycles                              31                       # number of cpu cycles simulated
system.cpu2.numWorkItemsCompleted                   0                       # number of work items this cpu completed
system.cpu2.numWorkItemsStarted                     0                       # number of work items this cpu started
system.cpu2.num_busy_cycles                        31                       # Number of busy cycles
system.cpu2.num_conditional_control_insts            0                       # number of instructions that are conditional controls
system.cpu2.num_fp_alu_accesses                    20                       # Number of float alu accesses
system.cpu2.num_fp_insts                           20                       # number of float instructions
system.cpu2.num_fp_register_reads                  54                       # number of times the floating registers were read
system.cpu2.num_fp_register_writes                 20                       # number of times the floating registers were written
system.cpu2.num_func_calls                          0                       # number of times a function call or return occured
system.cpu2.num_idle_cycles                         0                       # Number of idle cycles
system.cpu2.num_int_alu_accesses                    2                       # Number of integer alu accesses
system.cpu2.num_int_insts                           2                       # number of integer instructions
system.cpu2.num_int_register_reads                  4                       # number of times the integer registers were read
system.cpu2.num_int_register_writes                 1                       # number of times the integer registers were written
system.cpu2.num_load_insts                          1                       # Number of load instructions
system.cpu2.num_mem_refs                            1                       # number of memory refs
system.cpu2.num_store_insts                         0                       # Number of store instructions
system.cpu2.num_vec_alu_accesses                    0                       # Number of vector alu accesses
system.cpu2.num_vec_insts                           0                       # number of vector instructions
system.cpu2.num_vec_register_reads                  0                       # number of times the vector registers were read
system.cpu2.num_vec_register_writes                 0                       # number of times the vector registers were written
system.cpu2.op_class::No_OpClass                    0      0.00%      0.00% # Class of executed instruction
system.cpu2.op_class::IntAlu                        4     19.05%     19.05% # Class of executed instruction
system.cpu2.op_class::IntMult                       0      0.00%     19.05% # Class of executed instruction
system.cpu2.op_class::IntDiv                        0      0.00%     19.05% # Class of executed instruction
system.cpu2.op_class::FloatAdd                      0      0.00%     19.05% # Class of executed instruction
system.cpu2.op_class::FloatCmp                      0      0.00%     19.05% # Class of executed instruction
system.cpu2.op_class::FloatCvt                      0      0.00%     19.05% # Class of executed instruction
system.cpu2.op_class::FloatMult                     0      0.00%     19.05% # Class of executed instruction
system.cpu2.op_class::FloatMultAcc                  0      0.00%     19.05% # Class of executed instruction
system.cpu2.op_class::FloatDiv                      0      0.00%     19.05% # Class of executed instruction
system.cpu2.op_class::FloatMisc                     0      0.00%     19.05% # Class of executed instruction
system.cpu2.op_class::FloatSqrt                     0      0.00%     19.05% # Class of executed instruction
system.cpu2.op_class::SimdAdd                       0      0.00%     19.05% # Class of executed instruction
system.cpu2.op_class::SimdAddAcc                    0      0.00%     19.05% # Class of executed instruction
system.cpu2.op_class::SimdAlu                       0      0.00%     19.05% # Class of executed instruction
system.cpu2.op_class::SimdCmp                       0      0.00%     19.05% # Class of executed instruction
system.cpu2.op_class::SimdCvt                       0      0.00%     19.05% # Class of executed instruction
system.cpu2.op_class::SimdMisc                      0      0.00%     19.05% # Class of executed instruction
system.cpu2.op_class::SimdMult                      0      0.00%     19.05% # Class of executed instruction
system.cpu2.op_class::SimdMultAcc                   0      0.00%     19.05% # Class of executed instruction
system.cpu2.op_class::SimdShift                     0      0.00%     19.05% # Class of executed instruction
system.cpu2.op_class::SimdShiftAcc                  0      0.00%     19.05% # Class of executed instruction
system.cpu2.op_class::SimdDiv                       0      0.00%     19.05% # Class of executed instruction
system.cpu2.op_class::SimdSqrt                      0      0.00%     19.05% # Class of executed instruction
system.cpu2.op_class::SimdFloatAdd                  7     33.33%     52.38% # Class of executed instruction
system.cpu2.op_class::SimdFloatAlu                  0      0.00%     52.38% # Class of executed instruction
system.cpu2.op_class::SimdFloatCmp                  0      0.00%     52.38% # Class of executed instruction
system.cpu2.op_class::SimdFloatCvt                  0      0.00%     52.38% # Class of executed instruction
system.cpu2.op_class::SimdFloatDiv                  0      0.00%     52.38% # Class of executed instruction
system.cpu2.op_class::SimdFloatMisc                 0      0.00%     52.38% # Class of executed instruction
system.cpu2.op_class::SimdFloatMult                 9     42.86%     95.24% # Class of executed instruction
system.cpu2.op_class::SimdFloatMultAcc              0      0.00%     95.24% # Class of executed instruction
system.cpu2.op_class::SimdFloatSqrt                 0      0.00%     95.24% # Class of executed instruction
system.cpu2.op_class::SimdReduceAdd                 0      0.00%     95.24% # Class of executed instruction
system.cpu2.op_class::SimdReduceAlu                 0      0.00%     95.24% # Class of executed instruction
system.cpu2.op_class::SimdReduceCmp                 0      0.00%     95.24% # Class of executed instruction
system.cpu2.op_class::SimdFloatReduceAdd            0      0.00%     95.24% # Class of executed instruction
system.cpu2.op_class::SimdFloatReduceCmp            0      0.00%     95.24% # Class of executed instruction
system.cpu2.op_class::SimdAes                       0      0.00%     95.24% # Class of executed instruction
system.cpu2.op_class::SimdAesMix                    0      0.00%     95.24% # Class of executed instruction
system.cpu2.op_class::SimdSha1Hash                  0      0.00%     95.24% # Class of executed instruction
system.cpu2.op_class::SimdSha1Hash2                 0      0.00%     95.24% # Class of executed instruction
system.cpu2.op_class::SimdSha256Hash                0      0.00%     95.24% # Class of executed instruction
system.cpu2.op_class::SimdSha256Hash2               0      0.00%     95.24% # Class of executed instruction
system.cpu2.op_class::SimdShaSigma2                 0      0.00%     95.24% # Class of executed instruction
system.cpu2.op_class::SimdShaSigma3                 0      0.00%     95.24% # Class of executed instruction
system.cpu2.op_class::SimdPredAlu                   0      0.00%     95.24% # Class of executed instruction
system.cpu2.op_class::MemRead                       0      0.00%     95.24% # Class of executed instruction
system.cpu2.op_class::MemWrite                      0      0.00%     95.24% # Class of executed instruction
system.cpu2.op_class::FloatMemRead                  1      4.76%    100.00% # Class of executed instruction
system.cpu2.op_class::FloatMemWrite                 0      0.00%    100.00% # Class of executed instruction
system.cpu2.op_class::IprAccess                     0      0.00%    100.00% # Class of executed instruction
system.cpu2.op_class::InstPrefetch                  0      0.00%    100.00% # Class of executed instruction
system.cpu2.op_class::total                        21                       # Class of executed instruction
system.cpu2.workload.numSyscalls                    0                       # Number of system calls
system.cpu3.committedInsts                         19                       # Number of instructions committed
system.cpu3.committedOps                           21                       # Number of ops (including micro ops) committed
system.cpu3.idle_fraction                           0                       # Percentage of idle cycles
system.cpu3.l2bus.snoop_filter.hit_multi_requests            0                       # Number of requests hitting in the snoop filter with multiple (>1) holders of the requested data.
system.cpu3.l2bus.snoop_filter.hit_multi_snoops            0                       # Number of snoops hitting in the snoop filter with multiple (>1) holders of the requested data.
system.cpu3.l2bus.snoop_filter.hit_single_requests     12662002                       # Number of requests hitting in the snoop filter with a single holder of the requested data.
system.cpu3.l2bus.snoop_filter.hit_single_snoops      4657723                       # Number of snoops hitting in the snoop filter with a single holder of the requested data.
system.cpu3.l2bus.snoop_filter.tot_requests     21972957                       # Total number of requests made to the snoop filter.
system.cpu3.l2bus.snoop_filter.tot_snoops      4657723                       # Total number of snoops made to the snoop filter.
system.cpu3.mmucache.mmubus.snoop_filter.hit_multi_requests            0                       # Number of requests hitting in the snoop filter with multiple (>1) holders of the requested data.
system.cpu3.mmucache.mmubus.snoop_filter.hit_multi_snoops            0                       # Number of snoops hitting in the snoop filter with multiple (>1) holders of the requested data.
system.cpu3.mmucache.mmubus.snoop_filter.hit_single_requests            0                       # Number of requests hitting in the snoop filter with a single holder of the requested data.
system.cpu3.mmucache.mmubus.snoop_filter.hit_single_snoops            0                       # Number of snoops hitting in the snoop filter with a single holder of the requested data.
system.cpu3.mmucache.mmubus.snoop_filter.tot_requests            0                       # Total number of requests made to the snoop filter.
system.cpu3.mmucache.mmubus.snoop_filter.tot_snoops            0                       # Total number of snoops made to the snoop filter.
system.cpu3.not_idle_fraction                       1                       # Percentage of non-idle cycles
system.cpu3.numCycles                              31                       # number of cpu cycles simulated
system.cpu3.numWorkItemsCompleted                   0                       # number of work items this cpu completed
system.cpu3.numWorkItemsStarted                     0                       # number of work items this cpu started
system.cpu3.num_busy_cycles                        31                       # Number of busy cycles
system.cpu3.num_conditional_control_insts            0                       # number of instructions that are conditional controls
system.cpu3.num_fp_alu_accesses                    20                       # Number of float alu accesses
system.cpu3.num_fp_insts                           20                       # number of float instructions
system.cpu3.num_fp_register_reads                  54                       # number of times the floating registers were read
system.cpu3.num_fp_register_writes                 20                       # number of times the floating registers were written
system.cpu3.num_func_calls                          0                       # number of times a function call or return occured
system.cpu3.num_idle_cycles                         0                       # Number of idle cycles
system.cpu3.num_int_alu_accesses                    2                       # Number of integer alu accesses
system.cpu3.num_int_insts                           2                       # number of integer instructions
system.cpu3.num_int_register_reads                  4                       # number of times the integer registers were read
system.cpu3.num_int_register_writes                 1                       # number of times the integer registers were written
system.cpu3.num_load_insts                          1                       # Number of load instructions
system.cpu3.num_mem_refs                            1                       # number of memory refs
system.cpu3.num_store_insts                         0                       # Number of store instructions
system.cpu3.num_vec_alu_accesses                    0                       # Number of vector alu accesses
system.cpu3.num_vec_insts                           0                       # number of vector instructions
system.cpu3.num_vec_register_reads                  0                       # number of times the vector registers were read
system.cpu3.num_vec_register_writes                 0                       # number of times the vector registers were written
system.cpu3.op_class::No_OpClass                    0      0.00%      0.00% # Class of executed instruction
system.cpu3.op_class::IntAlu                        4     19.05%     19.05% # Class of executed instruction
system.cpu3.op_class::IntMult                       0      0.00%     19.05% # Class of executed instruction
system.cpu3.op_class::IntDiv                        0      0.00%     19.05% # Class of executed instruction
system.cpu3.op_class::FloatAdd                      0      0.00%     19.05% # Class of executed instruction
system.cpu3.op_class::FloatCmp                      0      0.00%     19.05% # Class of executed instruction
system.cpu3.op_class::FloatCvt                      0      0.00%     19.05% # Class of executed instruction
system.cpu3.op_class::FloatMult                     0      0.00%     19.05% # Class of executed instruction
system.cpu3.op_class::FloatMultAcc                  0      0.00%     19.05% # Class of executed instruction
system.cpu3.op_class::FloatDiv                      0      0.00%     19.05% # Class of executed instruction
system.cpu3.op_class::FloatMisc                     0      0.00%     19.05% # Class of executed instruction
system.cpu3.op_class::FloatSqrt                     0      0.00%     19.05% # Class of executed instruction
system.cpu3.op_class::SimdAdd                       0      0.00%     19.05% # Class of executed instruction
system.cpu3.op_class::SimdAddAcc                    0      0.00%     19.05% # Class of executed instruction
system.cpu3.op_class::SimdAlu                       0      0.00%     19.05% # Class of executed instruction
system.cpu3.op_class::SimdCmp                       0      0.00%     19.05% # Class of executed instruction
system.cpu3.op_class::SimdCvt                       0      0.00%     19.05% # Class of executed instruction
system.cpu3.op_class::SimdMisc                      0      0.00%     19.05% # Class of executed instruction
system.cpu3.op_class::SimdMult                      0      0.00%     19.05% # Class of executed instruction
system.cpu3.op_class::SimdMultAcc                   0      0.00%     19.05% # Class of executed instruction
system.cpu3.op_class::SimdShift                     0      0.00%     19.05% # Class of executed instruction
system.cpu3.op_class::SimdShiftAcc                  0      0.00%     19.05% # Class of executed instruction
system.cpu3.op_class::SimdDiv                       0      0.00%     19.05% # Class of executed instruction
system.cpu3.op_class::SimdSqrt                      0      0.00%     19.05% # Class of executed instruction
system.cpu3.op_class::SimdFloatAdd                  7     33.33%     52.38% # Class of executed instruction
system.cpu3.op_class::SimdFloatAlu                  0      0.00%     52.38% # Class of executed instruction
system.cpu3.op_class::SimdFloatCmp                  0      0.00%     52.38% # Class of executed instruction
system.cpu3.op_class::SimdFloatCvt                  0      0.00%     52.38% # Class of executed instruction
system.cpu3.op_class::SimdFloatDiv                  0      0.00%     52.38% # Class of executed instruction
system.cpu3.op_class::SimdFloatMisc                 0      0.00%     52.38% # Class of executed instruction
system.cpu3.op_class::SimdFloatMult                 9     42.86%     95.24% # Class of executed instruction
system.cpu3.op_class::SimdFloatMultAcc              0      0.00%     95.24% # Class of executed instruction
system.cpu3.op_class::SimdFloatSqrt                 0      0.00%     95.24% # Class of executed instruction
system.cpu3.op_class::SimdReduceAdd                 0      0.00%     95.24% # Class of executed instruction
system.cpu3.op_class::SimdReduceAlu                 0      0.00%     95.24% # Class of executed instruction
system.cpu3.op_class::SimdReduceCmp                 0      0.00%     95.24% # Class of executed instruction
system.cpu3.op_class::SimdFloatReduceAdd            0      0.00%     95.24% # Class of executed instruction
system.cpu3.op_class::SimdFloatReduceCmp            0      0.00%     95.24% # Class of executed instruction
system.cpu3.op_class::SimdAes                       0      0.00%     95.24% # Class of executed instruction
system.cpu3.op_class::SimdAesMix                    0      0.00%     95.24% # Class of executed instruction
system.cpu3.op_class::SimdSha1Hash                  0      0.00%     95.24% # Class of executed instruction
system.cpu3.op_class::SimdSha1Hash2                 0      0.00%     95.24% # Class of executed instruction
system.cpu3.op_class::SimdSha256Hash                0      0.00%     95.24% # Class of executed instruction
system.cpu3.op_class::SimdSha256Hash2               0      0.00%     95.24% # Class of executed instruction
system.cpu3.op_class::SimdShaSigma2                 0      0.00%     95.24% # Class of executed instruction
system.cpu3.op_class::SimdShaSigma3                 0      0.00%     95.24% # Class of executed instruction
system.cpu3.op_class::SimdPredAlu                   0      0.00%     95.24% # Class of executed instruction
system.cpu3.op_class::MemRead                       0      0.00%     95.24% # Class of executed instruction
system.cpu3.op_class::MemWrite                      0      0.00%     95.24% # Class of executed instruction
system.cpu3.op_class::FloatMemRead                  1      4.76%    100.00% # Class of executed instruction
system.cpu3.op_class::FloatMemWrite                 0      0.00%    100.00% # Class of executed instruction
system.cpu3.op_class::IprAccess                     0      0.00%    100.00% # Class of executed instruction
system.cpu3.op_class::InstPrefetch                  0      0.00%    100.00% # Class of executed instruction
system.cpu3.op_class::total                        21                       # Class of executed instruction
system.cpu3.workload.numSyscalls                    0                       # Number of system calls
system.l3bus.snoop_filter.hit_multi_requests            0                       # Number of requests hitting in the snoop filter with multiple (>1) holders of the requested data.
system.l3bus.snoop_filter.hit_multi_snoops            0                       # Number of snoops hitting in the snoop filter with multiple (>1) holders of the requested data.
system.l3bus.snoop_filter.hit_single_requests     38919316                       # Number of requests hitting in the snoop filter with a single holder of the requested data.
system.l3bus.snoop_filter.hit_single_snoops            0                       # Number of snoops hitting in the snoop filter with a single holder of the requested data.
system.l3bus.snoop_filter.tot_requests       77395393                       # Total number of requests made to the snoop filter.
system.l3bus.snoop_filter.tot_snoops                0                       # Total number of snoops made to the snoop filter.
system.membus.snoop_filter.hit_multi_requests            0                       # Number of requests hitting in the snoop filter with multiple (>1) holders of the requested data.
system.membus.snoop_filter.hit_multi_snoops            0                       # Number of snoops hitting in the snoop filter with multiple (>1) holders of the requested data.
system.membus.snoop_filter.hit_single_requests     22507724                       # Number of requests hitting in the snoop filter with a single holder of the requested data.
system.membus.snoop_filter.hit_single_snoops            0                       # Number of snoops hitting in the snoop filter with a single holder of the requested data.
system.membus.snoop_filter.tot_requests      45080788                       # Total number of requests made to the snoop filter.
system.membus.snoop_filter.tot_snoops               0                       # Total number of snoops made to the snoop filter.
system.switch_cpus0.cc_regfile_reads          9300676                       # number of cc regfile reads
system.switch_cpus0.cc_regfile_writes         4425957                       # number of cc regfile writes
system.switch_cpus0.committedInsts          249999011                       # Number of Instructions Simulated
system.switch_cpus0.committedOps            275174412                       # Number of Ops (including micro ops) Simulated
system.switch_cpus0.cpi                      4.248466                       # CPI: Cycles Per Instruction
system.switch_cpus0.cpi_total                4.248466                       # CPI: Total CPI of All Threads
system.switch_cpus0.fp_regfile_reads        455080764                       # number of floating regfile reads
system.switch_cpus0.fp_regfile_writes       206105398                       # number of floating regfile writes
system.switch_cpus0.idleCycles                  11045                       # Total number of cycles that the CPU has spent unscheduled due to idling
system.switch_cpus0.iew.branchMispredicts         6486                       # Number of branch mispredicts detected at execute
system.switch_cpus0.iew.exec_branches         1661672                       # Number of branches executed
system.switch_cpus0.iew.exec_nop                    0                       # number of nop insts executed
system.switch_cpus0.iew.exec_rate            0.335447                       # Inst execution rate
system.switch_cpus0.iew.exec_refs           190202360                       # number of memory reference insts executed
system.switch_cpus0.iew.exec_stores          31310022                       # Number of stores executed
system.switch_cpus0.iew.exec_swp                    0                       # number of swp insts executed
system.switch_cpus0.iew.iewBlockCycles      170998781                       # Number of cycles IEW is blocking
system.switch_cpus0.iew.iewDispLoadInsts     77994100                       # Number of dispatched load instructions
system.switch_cpus0.iew.iewDispNonSpecInsts            0                       # Number of dispatched non-speculative instructions
system.switch_cpus0.iew.iewDispSquashedInsts          341                       # Number of squashed instructions skipped by dispatch
system.switch_cpus0.iew.iewDispStoreInsts     31367332                       # Number of dispatched store instructions
system.switch_cpus0.iew.iewDispatchedInsts    275465128                       # Number of instructions dispatched to IQ
system.switch_cpus0.iew.iewExecLoadInsts    158892338                       # Number of load instructions executed
system.switch_cpus0.iew.iewExecSquashedInsts         1378                       # Number of squashed instructions skipped in execute
system.switch_cpus0.iew.iewExecutedInsts    356282277                       # Number of executed instructions
system.switch_cpus0.iew.iewIQFullEvents       1796846                       # Number of times the IQ has become full, causing a stall
system.switch_cpus0.iew.iewIdleCycles               0                       # Number of cycles IEW is idle
system.switch_cpus0.iew.iewLSQFullEvents    314911556                       # Number of times the LSQ has become full, causing a stall
system.switch_cpus0.iew.iewSquashCycles          7504                       # Number of cycles IEW is squashing
system.switch_cpus0.iew.iewUnblockCycles    317205849                       # Number of cycles IEW is unblocking
system.switch_cpus0.iew.memOrderViolationEvents         2163                       # Number of memory order violations
system.switch_cpus0.iew.predictedNotTakenIncorrect         6092                       # Number of branches that were predicted not taken incorrectly
system.switch_cpus0.iew.predictedTakenIncorrect          394                       # Number of branches that were predicted taken incorrectly
system.switch_cpus0.iew.wb_consumers        378038443                       # num instructions consuming a value
system.switch_cpus0.iew.wb_count            275324619                       # cumulative count of insts written-back
system.switch_cpus0.iew.wb_fanout            0.532111                       # average fanout of values written-back
system.switch_cpus0.iew.wb_producers        201158237                       # num instructions producing a value
system.switch_cpus0.iew.wb_rate              0.259224                       # insts written-back per cycle
system.switch_cpus0.iew.wb_sent             275325464                       # cumulative count of insts sent to commit
system.switch_cpus0.int_regfile_reads       416453982                       # number of integer regfile reads
system.switch_cpus0.int_regfile_writes       36248465                       # number of integer regfile writes
system.switch_cpus0.ipc                      0.235379                       # IPC: Instructions Per Cycle
system.switch_cpus0.ipc_total                0.235379                       # IPC: Total IPC of All Threads
system.switch_cpus0.iq.FU_type_0::No_OpClass            0      0.00%      0.00% # Type of FU issued
system.switch_cpus0.iq.FU_type_0::IntAlu     40339947     11.32%     11.32% # Type of FU issued
system.switch_cpus0.iq.FU_type_0::IntMult            0      0.00%     11.32% # Type of FU issued
system.switch_cpus0.iq.FU_type_0::IntDiv            0      0.00%     11.32% # Type of FU issued
system.switch_cpus0.iq.FU_type_0::FloatAdd            0      0.00%     11.32% # Type of FU issued
system.switch_cpus0.iq.FU_type_0::FloatCmp            0      0.00%     11.32% # Type of FU issued
system.switch_cpus0.iq.FU_type_0::FloatCvt            0      0.00%     11.32% # Type of FU issued
system.switch_cpus0.iq.FU_type_0::FloatMult            0      0.00%     11.32% # Type of FU issued
system.switch_cpus0.iq.FU_type_0::FloatMultAcc            0      0.00%     11.32% # Type of FU issued
system.switch_cpus0.iq.FU_type_0::FloatDiv            0      0.00%     11.32% # Type of FU issued
system.switch_cpus0.iq.FU_type_0::FloatMisc            0      0.00%     11.32% # Type of FU issued
system.switch_cpus0.iq.FU_type_0::FloatSqrt            0      0.00%     11.32% # Type of FU issued
system.switch_cpus0.iq.FU_type_0::SimdAdd            0      0.00%     11.32% # Type of FU issued
system.switch_cpus0.iq.FU_type_0::SimdAddAcc            0      0.00%     11.32% # Type of FU issued
system.switch_cpus0.iq.FU_type_0::SimdAlu        37219      0.01%     11.33% # Type of FU issued
system.switch_cpus0.iq.FU_type_0::SimdCmp            0      0.00%     11.33% # Type of FU issued
system.switch_cpus0.iq.FU_type_0::SimdCvt            0      0.00%     11.33% # Type of FU issued
system.switch_cpus0.iq.FU_type_0::SimdMisc            0      0.00%     11.33% # Type of FU issued
system.switch_cpus0.iq.FU_type_0::SimdMult            0      0.00%     11.33% # Type of FU issued
system.switch_cpus0.iq.FU_type_0::SimdMultAcc            0      0.00%     11.33% # Type of FU issued
system.switch_cpus0.iq.FU_type_0::SimdShift            0      0.00%     11.33% # Type of FU issued
system.switch_cpus0.iq.FU_type_0::SimdShiftAcc            0      0.00%     11.33% # Type of FU issued
system.switch_cpus0.iq.FU_type_0::SimdDiv            0      0.00%     11.33% # Type of FU issued
system.switch_cpus0.iq.FU_type_0::SimdSqrt            0      0.00%     11.33% # Type of FU issued
system.switch_cpus0.iq.FU_type_0::SimdFloatAdd     77280663     21.69%     33.02% # Type of FU issued
system.switch_cpus0.iq.FU_type_0::SimdFloatAlu            0      0.00%     33.02% # Type of FU issued
system.switch_cpus0.iq.FU_type_0::SimdFloatCmp            0      0.00%     33.02% # Type of FU issued
system.switch_cpus0.iq.FU_type_0::SimdFloatCvt            0      0.00%     33.02% # Type of FU issued
system.switch_cpus0.iq.FU_type_0::SimdFloatDiv      1488381      0.42%     33.44% # Type of FU issued
system.switch_cpus0.iq.FU_type_0::SimdFloatMisc            0      0.00%     33.44% # Type of FU issued
system.switch_cpus0.iq.FU_type_0::SimdFloatMult     46934109     13.17%     46.61% # Type of FU issued
system.switch_cpus0.iq.FU_type_0::SimdFloatMultAcc            0      0.00%     46.61% # Type of FU issued
system.switch_cpus0.iq.FU_type_0::SimdFloatSqrt            0      0.00%     46.61% # Type of FU issued
system.switch_cpus0.iq.FU_type_0::SimdReduceAdd            0      0.00%     46.61% # Type of FU issued
system.switch_cpus0.iq.FU_type_0::SimdReduceAlu            0      0.00%     46.61% # Type of FU issued
system.switch_cpus0.iq.FU_type_0::SimdReduceCmp            0      0.00%     46.61% # Type of FU issued
system.switch_cpus0.iq.FU_type_0::SimdFloatReduceAdd            0      0.00%     46.61% # Type of FU issued
system.switch_cpus0.iq.FU_type_0::SimdFloatReduceCmp            0      0.00%     46.61% # Type of FU issued
system.switch_cpus0.iq.FU_type_0::SimdAes            0      0.00%     46.61% # Type of FU issued
system.switch_cpus0.iq.FU_type_0::SimdAesMix            0      0.00%     46.61% # Type of FU issued
system.switch_cpus0.iq.FU_type_0::SimdSha1Hash            0      0.00%     46.61% # Type of FU issued
system.switch_cpus0.iq.FU_type_0::SimdSha1Hash2            0      0.00%     46.61% # Type of FU issued
system.switch_cpus0.iq.FU_type_0::SimdSha256Hash            0      0.00%     46.61% # Type of FU issued
system.switch_cpus0.iq.FU_type_0::SimdSha256Hash2            0      0.00%     46.61% # Type of FU issued
system.switch_cpus0.iq.FU_type_0::SimdShaSigma2            0      0.00%     46.61% # Type of FU issued
system.switch_cpus0.iq.FU_type_0::SimdShaSigma3            0      0.00%     46.61% # Type of FU issued
system.switch_cpus0.iq.FU_type_0::SimdPredAlu            0      0.00%     46.61% # Type of FU issued
system.switch_cpus0.iq.FU_type_0::MemRead     52893649     14.85%     61.46% # Type of FU issued
system.switch_cpus0.iq.FU_type_0::MemWrite       129175      0.04%     61.50% # Type of FU issued
system.switch_cpus0.iq.FU_type_0::FloatMemRead    105999560     29.75%     91.25% # Type of FU issued
system.switch_cpus0.iq.FU_type_0::FloatMemWrite     31180952      8.75%    100.00% # Type of FU issued
system.switch_cpus0.iq.FU_type_0::IprAccess            0      0.00%    100.00% # Type of FU issued
system.switch_cpus0.iq.FU_type_0::InstPrefetch            0      0.00%    100.00% # Type of FU issued
system.switch_cpus0.iq.FU_type_0::total     356283655                       # Type of FU issued
system.switch_cpus0.iq.fp_alu_accesses      319949489                       # Number of floating point alu accesses
system.switch_cpus0.iq.fp_inst_queue_reads    606228659                       # Number of floating instruction queue reads
system.switch_cpus0.iq.fp_inst_queue_wakeup_accesses    237285748                       # Number of floating instruction queue wakeup accesses
system.switch_cpus0.iq.fp_inst_queue_writes    237593235                       # Number of floating instruction queue writes
system.switch_cpus0.iq.fu_busy_cnt           43704990                       # FU busy when requested
system.switch_cpus0.iq.fu_busy_rate          0.122669                       # FU busy rate (busy events/executed inst)
system.switch_cpus0.iq.fu_full::No_OpClass            0      0.00%      0.00% # attempts to use FU when none available
system.switch_cpus0.iq.fu_full::IntAlu         491060      1.12%      1.12% # attempts to use FU when none available
system.switch_cpus0.iq.fu_full::IntMult             0      0.00%      1.12% # attempts to use FU when none available
system.switch_cpus0.iq.fu_full::IntDiv              0      0.00%      1.12% # attempts to use FU when none available
system.switch_cpus0.iq.fu_full::FloatAdd            0      0.00%      1.12% # attempts to use FU when none available
system.switch_cpus0.iq.fu_full::FloatCmp            0      0.00%      1.12% # attempts to use FU when none available
system.switch_cpus0.iq.fu_full::FloatCvt            0      0.00%      1.12% # attempts to use FU when none available
system.switch_cpus0.iq.fu_full::FloatMult            0      0.00%      1.12% # attempts to use FU when none available
system.switch_cpus0.iq.fu_full::FloatMultAcc            0      0.00%      1.12% # attempts to use FU when none available
system.switch_cpus0.iq.fu_full::FloatDiv            0      0.00%      1.12% # attempts to use FU when none available
system.switch_cpus0.iq.fu_full::FloatMisc            0      0.00%      1.12% # attempts to use FU when none available
system.switch_cpus0.iq.fu_full::FloatSqrt            0      0.00%      1.12% # attempts to use FU when none available
system.switch_cpus0.iq.fu_full::SimdAdd             0      0.00%      1.12% # attempts to use FU when none available
system.switch_cpus0.iq.fu_full::SimdAddAcc            0      0.00%      1.12% # attempts to use FU when none available
system.switch_cpus0.iq.fu_full::SimdAlu             0      0.00%      1.12% # attempts to use FU when none available
system.switch_cpus0.iq.fu_full::SimdCmp             0      0.00%      1.12% # attempts to use FU when none available
system.switch_cpus0.iq.fu_full::SimdCvt             0      0.00%      1.12% # attempts to use FU when none available
system.switch_cpus0.iq.fu_full::SimdMisc            0      0.00%      1.12% # attempts to use FU when none available
system.switch_cpus0.iq.fu_full::SimdMult            0      0.00%      1.12% # attempts to use FU when none available
system.switch_cpus0.iq.fu_full::SimdMultAcc            0      0.00%      1.12% # attempts to use FU when none available
system.switch_cpus0.iq.fu_full::SimdShift            0      0.00%      1.12% # attempts to use FU when none available
system.switch_cpus0.iq.fu_full::SimdShiftAcc            0      0.00%      1.12% # attempts to use FU when none available
system.switch_cpus0.iq.fu_full::SimdDiv             0      0.00%      1.12% # attempts to use FU when none available
system.switch_cpus0.iq.fu_full::SimdSqrt            0      0.00%      1.12% # attempts to use FU when none available
system.switch_cpus0.iq.fu_full::SimdFloatAdd      5080365     11.62%     12.75% # attempts to use FU when none available
system.switch_cpus0.iq.fu_full::SimdFloatAlu            0      0.00%     12.75% # attempts to use FU when none available
system.switch_cpus0.iq.fu_full::SimdFloatCmp            0      0.00%     12.75% # attempts to use FU when none available
system.switch_cpus0.iq.fu_full::SimdFloatCvt            0      0.00%     12.75% # attempts to use FU when none available
system.switch_cpus0.iq.fu_full::SimdFloatDiv            0      0.00%     12.75% # attempts to use FU when none available
system.switch_cpus0.iq.fu_full::SimdFloatMisc            0      0.00%     12.75% # attempts to use FU when none available
system.switch_cpus0.iq.fu_full::SimdFloatMult      5202809     11.90%     24.65% # attempts to use FU when none available
system.switch_cpus0.iq.fu_full::SimdFloatMultAcc            0      0.00%     24.65% # attempts to use FU when none available
system.switch_cpus0.iq.fu_full::SimdFloatSqrt            0      0.00%     24.65% # attempts to use FU when none available
system.switch_cpus0.iq.fu_full::SimdReduceAdd            0      0.00%     24.65% # attempts to use FU when none available
system.switch_cpus0.iq.fu_full::SimdReduceAlu            0      0.00%     24.65% # attempts to use FU when none available
system.switch_cpus0.iq.fu_full::SimdReduceCmp            0      0.00%     24.65% # attempts to use FU when none available
system.switch_cpus0.iq.fu_full::SimdFloatReduceAdd            0      0.00%     24.65% # attempts to use FU when none available
system.switch_cpus0.iq.fu_full::SimdFloatReduceCmp            0      0.00%     24.65% # attempts to use FU when none available
system.switch_cpus0.iq.fu_full::SimdAes             0      0.00%     24.65% # attempts to use FU when none available
system.switch_cpus0.iq.fu_full::SimdAesMix            0      0.00%     24.65% # attempts to use FU when none available
system.switch_cpus0.iq.fu_full::SimdSha1Hash            0      0.00%     24.65% # attempts to use FU when none available
system.switch_cpus0.iq.fu_full::SimdSha1Hash2            0      0.00%     24.65% # attempts to use FU when none available
system.switch_cpus0.iq.fu_full::SimdSha256Hash            0      0.00%     24.65% # attempts to use FU when none available
system.switch_cpus0.iq.fu_full::SimdSha256Hash2            0      0.00%     24.65% # attempts to use FU when none available
system.switch_cpus0.iq.fu_full::SimdShaSigma2            0      0.00%     24.65% # attempts to use FU when none available
system.switch_cpus0.iq.fu_full::SimdShaSigma3            0      0.00%     24.65% # attempts to use FU when none available
system.switch_cpus0.iq.fu_full::SimdPredAlu            0      0.00%     24.65% # attempts to use FU when none available
system.switch_cpus0.iq.fu_full::MemRead      10010217     22.90%     47.56% # attempts to use FU when none available
system.switch_cpus0.iq.fu_full::MemWrite        24298      0.06%     47.61% # attempts to use FU when none available
system.switch_cpus0.iq.fu_full::FloatMemRead     21232859     48.58%     96.19% # attempts to use FU when none available
system.switch_cpus0.iq.fu_full::FloatMemWrite      1663382      3.81%    100.00% # attempts to use FU when none available
system.switch_cpus0.iq.fu_full::IprAccess            0      0.00%    100.00% # attempts to use FU when none available
system.switch_cpus0.iq.fu_full::InstPrefetch            0      0.00%    100.00% # attempts to use FU when none available
system.switch_cpus0.iq.int_alu_accesses      80039156                       # Number of integer alu accesses
system.switch_cpus0.iq.int_inst_queue_reads   1212145092                       # Number of integer instruction queue reads
system.switch_cpus0.iq.int_inst_queue_wakeup_accesses     38038871                       # Number of integer instruction queue wakeup accesses
system.switch_cpus0.iq.int_inst_queue_writes     38164671                       # Number of integer instruction queue writes
system.switch_cpus0.iq.iqInstsAdded         275465128                       # Number of instructions added to the IQ (excludes non-spec)
system.switch_cpus0.iq.iqInstsIssued        356283655                       # Number of instructions issued
system.switch_cpus0.iq.iqSquashedInstsExamined       290615                       # Number of squashed instructions iterated over during squash; mainly for profiling
system.switch_cpus0.iq.iqSquashedInstsIssued          238                       # Number of squashed instructions issued
system.switch_cpus0.iq.iqSquashedOperandsExamined       470434                       # Number of squashed operands that are examined and possibly removed from graph
system.switch_cpus0.iq.issued_per_cycle::samples   1062101213                       # Number of insts issued each cycle
system.switch_cpus0.iq.issued_per_cycle::mean     0.335452                       # Number of insts issued each cycle
system.switch_cpus0.iq.issued_per_cycle::stdev     1.264162                       # Number of insts issued each cycle
system.switch_cpus0.iq.issued_per_cycle::underflows            0      0.00%      0.00% # Number of insts issued each cycle
system.switch_cpus0.iq.issued_per_cycle::0    972530292     91.57%     91.57% # Number of insts issued each cycle
system.switch_cpus0.iq.issued_per_cycle::1     14677945      1.38%     92.95% # Number of insts issued each cycle
system.switch_cpus0.iq.issued_per_cycle::2     11643152      1.10%     94.04% # Number of insts issued each cycle
system.switch_cpus0.iq.issued_per_cycle::3      6885387      0.65%     94.69% # Number of insts issued each cycle
system.switch_cpus0.iq.issued_per_cycle::4     26877392      2.53%     97.22% # Number of insts issued each cycle
system.switch_cpus0.iq.issued_per_cycle::5      7936810      0.75%     97.97% # Number of insts issued each cycle
system.switch_cpus0.iq.issued_per_cycle::6      7478454      0.70%     98.68% # Number of insts issued each cycle
system.switch_cpus0.iq.issued_per_cycle::7      6975345      0.66%     99.33% # Number of insts issued each cycle
system.switch_cpus0.iq.issued_per_cycle::8      7096436      0.67%    100.00% # Number of insts issued each cycle
system.switch_cpus0.iq.issued_per_cycle::overflows            0      0.00%    100.00% # Number of insts issued each cycle
system.switch_cpus0.iq.issued_per_cycle::min_value            0                       # Number of insts issued each cycle
system.switch_cpus0.iq.issued_per_cycle::max_value            8                       # Number of insts issued each cycle
system.switch_cpus0.iq.issued_per_cycle::total   1062101213                       # Number of insts issued each cycle
system.switch_cpus0.iq.rate                  0.335448                       # Inst issue rate
system.switch_cpus0.iq.vec_alu_accesses             0                       # Number of vector alu accesses
system.switch_cpus0.iq.vec_inst_queue_reads            0                       # Number of vector instruction queue reads
system.switch_cpus0.iq.vec_inst_queue_wakeup_accesses            0                       # Number of vector instruction queue wakeup accesses
system.switch_cpus0.iq.vec_inst_queue_writes            0                       # Number of vector instruction queue writes
system.switch_cpus0.memDep0.conflictingLoads      2742976                       # Number of conflicting loads.
system.switch_cpus0.memDep0.conflictingStores       992570                       # Number of conflicting stores.
system.switch_cpus0.memDep0.insertedLoads     77994100                       # Number of loads inserted to the mem dependence unit.
system.switch_cpus0.memDep0.insertedStores     31367332                       # Number of stores inserted to the mem dependence unit.
system.switch_cpus0.misc_regfile_reads      198839407                       # number of misc regfile reads
system.switch_cpus0.misc_regfile_writes             1                       # number of misc regfile writes
system.switch_cpus0.numCycles              1062112258                       # number of cpu cycles simulated
system.switch_cpus0.numWorkItemsCompleted            0                       # number of work items this cpu completed
system.switch_cpus0.numWorkItemsStarted             0                       # number of work items this cpu started
system.switch_cpus0.timesIdled                     42                       # Number of times that the entire CPU went into an idle state and unscheduled itself
system.switch_cpus1.cc_regfile_reads          9300673                       # number of cc regfile reads
system.switch_cpus1.cc_regfile_writes         4425959                       # number of cc regfile writes
system.switch_cpus1.committedInsts          250000005                       # Number of Instructions Simulated
system.switch_cpus1.committedOps            275175507                       # Number of Ops (including micro ops) Simulated
system.switch_cpus1.cpi                      4.248449                       # CPI: Cycles Per Instruction
system.switch_cpus1.cpi_total                4.248449                       # CPI: Total CPI of All Threads
system.switch_cpus1.fp_regfile_reads        455082505                       # number of floating regfile reads
system.switch_cpus1.fp_regfile_writes       206106280                       # number of floating regfile writes
system.switch_cpus1.idleCycles                  11322                       # Total number of cycles that the CPU has spent unscheduled due to idling
system.switch_cpus1.iew.branchMispredicts         6484                       # Number of branch mispredicts detected at execute
system.switch_cpus1.iew.exec_branches         1661672                       # Number of branches executed
system.switch_cpus1.iew.exec_nop                    0                       # number of nop insts executed
system.switch_cpus1.iew.exec_rate            0.336594                       # Inst execution rate
system.switch_cpus1.iew.exec_refs           191420077                       # number of memory reference insts executed
system.switch_cpus1.iew.exec_stores          31310160                       # Number of stores executed
system.switch_cpus1.iew.exec_swp                    0                       # number of swp insts executed
system.switch_cpus1.iew.iewBlockCycles      177759699                       # Number of cycles IEW is blocking
system.switch_cpus1.iew.iewDispLoadInsts     77994204                       # Number of dispatched load instructions
system.switch_cpus1.iew.iewDispNonSpecInsts            0                       # Number of dispatched non-speculative instructions
system.switch_cpus1.iew.iewDispSquashedInsts          285                       # Number of squashed instructions skipped by dispatch
system.switch_cpus1.iew.iewDispStoreInsts     31367371                       # Number of dispatched store instructions
system.switch_cpus1.iew.iewDispatchedInsts    275465971                       # Number of instructions dispatched to IQ
system.switch_cpus1.iew.iewExecLoadInsts    160109917                       # Number of load instructions executed
system.switch_cpus1.iew.iewExecSquashedInsts         1324                       # Number of squashed instructions skipped in execute
system.switch_cpus1.iew.iewExecutedInsts    357500606                       # Number of executed instructions
system.switch_cpus1.iew.iewIQFullEvents       1846452                       # Number of times the IQ has become full, causing a stall
system.switch_cpus1.iew.iewIdleCycles               0                       # Number of cycles IEW is idle
system.switch_cpus1.iew.iewLSQFullEvents    315047306                       # Number of times the LSQ has become full, causing a stall
system.switch_cpus1.iew.iewSquashCycles          7507                       # Number of cycles IEW is squashing
system.switch_cpus1.iew.iewUnblockCycles    317389318                       # Number of cycles IEW is unblocking
system.switch_cpus1.iew.memOrderViolationEvents         2162                       # Number of memory order violations
system.switch_cpus1.iew.predictedNotTakenIncorrect         6090                       # Number of branches that were predicted not taken incorrectly
system.switch_cpus1.iew.predictedTakenIncorrect          394                       # Number of branches that were predicted taken incorrectly
system.switch_cpus1.iew.wb_consumers        378008875                       # num instructions consuming a value
system.switch_cpus1.iew.wb_count            275325524                       # cumulative count of insts written-back
system.switch_cpus1.iew.wb_fanout            0.532217                       # average fanout of values written-back
system.switch_cpus1.iew.wb_producers        201182933                       # num instructions producing a value
system.switch_cpus1.iew.wb_rate              0.259225                       # insts written-back per cycle
system.switch_cpus1.iew.wb_sent             275326416                       # cumulative count of insts sent to commit
system.switch_cpus1.int_regfile_reads       418889333                       # number of integer regfile reads
system.switch_cpus1.int_regfile_writes       36248397                       # number of integer regfile writes
system.switch_cpus1.ipc                      0.235380                       # IPC: Instructions Per Cycle
system.switch_cpus1.ipc_total                0.235380                       # IPC: Total IPC of All Threads
system.switch_cpus1.iq.FU_type_0::No_OpClass            0      0.00%      0.00% # Type of FU issued
system.switch_cpus1.iq.FU_type_0::IntAlu     40340059     11.28%     11.28% # Type of FU issued
system.switch_cpus1.iq.FU_type_0::IntMult            0      0.00%     11.28% # Type of FU issued
system.switch_cpus1.iq.FU_type_0::IntDiv            0      0.00%     11.28% # Type of FU issued
system.switch_cpus1.iq.FU_type_0::FloatAdd            0      0.00%     11.28% # Type of FU issued
system.switch_cpus1.iq.FU_type_0::FloatCmp            0      0.00%     11.28% # Type of FU issued
system.switch_cpus1.iq.FU_type_0::FloatCvt            0      0.00%     11.28% # Type of FU issued
system.switch_cpus1.iq.FU_type_0::FloatMult            0      0.00%     11.28% # Type of FU issued
system.switch_cpus1.iq.FU_type_0::FloatMultAcc            0      0.00%     11.28% # Type of FU issued
system.switch_cpus1.iq.FU_type_0::FloatDiv            0      0.00%     11.28% # Type of FU issued
system.switch_cpus1.iq.FU_type_0::FloatMisc            0      0.00%     11.28% # Type of FU issued
system.switch_cpus1.iq.FU_type_0::FloatSqrt            0      0.00%     11.28% # Type of FU issued
system.switch_cpus1.iq.FU_type_0::SimdAdd            0      0.00%     11.28% # Type of FU issued
system.switch_cpus1.iq.FU_type_0::SimdAddAcc            0      0.00%     11.28% # Type of FU issued
system.switch_cpus1.iq.FU_type_0::SimdAlu        37229      0.01%     11.29% # Type of FU issued
system.switch_cpus1.iq.FU_type_0::SimdCmp            0      0.00%     11.29% # Type of FU issued
system.switch_cpus1.iq.FU_type_0::SimdCvt            0      0.00%     11.29% # Type of FU issued
system.switch_cpus1.iq.FU_type_0::SimdMisc            0      0.00%     11.29% # Type of FU issued
system.switch_cpus1.iq.FU_type_0::SimdMult            0      0.00%     11.29% # Type of FU issued
system.switch_cpus1.iq.FU_type_0::SimdMultAcc            0      0.00%     11.29% # Type of FU issued
system.switch_cpus1.iq.FU_type_0::SimdShift            0      0.00%     11.29% # Type of FU issued
system.switch_cpus1.iq.FU_type_0::SimdShiftAcc            0      0.00%     11.29% # Type of FU issued
system.switch_cpus1.iq.FU_type_0::SimdDiv            0      0.00%     11.29% # Type of FU issued
system.switch_cpus1.iq.FU_type_0::SimdSqrt            0      0.00%     11.29% # Type of FU issued
system.switch_cpus1.iq.FU_type_0::SimdFloatAdd     77280918     21.62%     32.91% # Type of FU issued
system.switch_cpus1.iq.FU_type_0::SimdFloatAlu            0      0.00%     32.91% # Type of FU issued
system.switch_cpus1.iq.FU_type_0::SimdFloatCmp            0      0.00%     32.91% # Type of FU issued
system.switch_cpus1.iq.FU_type_0::SimdFloatCvt            0      0.00%     32.91% # Type of FU issued
system.switch_cpus1.iq.FU_type_0::SimdFloatDiv      1488387      0.42%     33.33% # Type of FU issued
system.switch_cpus1.iq.FU_type_0::SimdFloatMisc            0      0.00%     33.33% # Type of FU issued
system.switch_cpus1.iq.FU_type_0::SimdFloatMult     46934318     13.13%     46.46% # Type of FU issued
system.switch_cpus1.iq.FU_type_0::SimdFloatMultAcc            0      0.00%     46.46% # Type of FU issued
system.switch_cpus1.iq.FU_type_0::SimdFloatSqrt            0      0.00%     46.46% # Type of FU issued
system.switch_cpus1.iq.FU_type_0::SimdReduceAdd            0      0.00%     46.46% # Type of FU issued
system.switch_cpus1.iq.FU_type_0::SimdReduceAlu            0      0.00%     46.46% # Type of FU issued
system.switch_cpus1.iq.FU_type_0::SimdReduceCmp            0      0.00%     46.46% # Type of FU issued
system.switch_cpus1.iq.FU_type_0::SimdFloatReduceAdd            0      0.00%     46.46% # Type of FU issued
system.switch_cpus1.iq.FU_type_0::SimdFloatReduceCmp            0      0.00%     46.46% # Type of FU issued
system.switch_cpus1.iq.FU_type_0::SimdAes            0      0.00%     46.46% # Type of FU issued
system.switch_cpus1.iq.FU_type_0::SimdAesMix            0      0.00%     46.46% # Type of FU issued
system.switch_cpus1.iq.FU_type_0::SimdSha1Hash            0      0.00%     46.46% # Type of FU issued
system.switch_cpus1.iq.FU_type_0::SimdSha1Hash2            0      0.00%     46.46% # Type of FU issued
system.switch_cpus1.iq.FU_type_0::SimdSha256Hash            0      0.00%     46.46% # Type of FU issued
system.switch_cpus1.iq.FU_type_0::SimdSha256Hash2            0      0.00%     46.46% # Type of FU issued
system.switch_cpus1.iq.FU_type_0::SimdShaSigma2            0      0.00%     46.46% # Type of FU issued
system.switch_cpus1.iq.FU_type_0::SimdShaSigma3            0      0.00%     46.46% # Type of FU issued
system.switch_cpus1.iq.FU_type_0::SimdPredAlu            0      0.00%     46.46% # Type of FU issued
system.switch_cpus1.iq.FU_type_0::MemRead     53299320     14.91%     61.36% # Type of FU issued
system.switch_cpus1.iq.FU_type_0::MemWrite       129169      0.04%     61.40% # Type of FU issued
system.switch_cpus1.iq.FU_type_0::FloatMemRead    106811441     29.88%     91.28% # Type of FU issued
system.switch_cpus1.iq.FU_type_0::FloatMemWrite     31181093      8.72%    100.00% # Type of FU issued
system.switch_cpus1.iq.FU_type_0::IprAccess            0      0.00%    100.00% # Type of FU issued
system.switch_cpus1.iq.FU_type_0::InstPrefetch            0      0.00%    100.00% # Type of FU issued
system.switch_cpus1.iq.FU_type_0::total     357501934                       # Type of FU issued
[...]
system.switch_cpus3.commit.numCommittedDist::mean     0.259060                       # Number of insts commited each cycle
system.switch_cpus3.commit.numCommittedDist::stdev     1.275157                       # Number of insts commited each cycle
system.switch_cpus3.commit.numCommittedDist::underflows            0      0.00%      0.00% # Number of insts commited each cycle
system.switch_cpus3.commit.numCommittedDist::0    999294807     94.09%     94.09% # Number of insts commited each cycle
system.switch_cpus3.commit.numCommittedDist::1     18725509      1.76%     95.85% # Number of insts commited each cycle
system.switch_cpus3.commit.numCommittedDist::2      7977792      0.75%     96.60% # Number of insts commited each cycle
system.switch_cpus3.commit.numCommittedDist::3      5599272      0.53%     97.13% # Number of insts commited each cycle
system.switch_cpus3.commit.numCommittedDist::4      2999383      0.28%     97.41% # Number of insts commited each cycle
system.switch_cpus3.commit.numCommittedDist::5      1638129      0.15%     97.57% # Number of insts commited each cycle
system.switch_cpus3.commit.numCommittedDist::6      1163129      0.11%     97.68% # Number of insts commited each cycle
system.switch_cpus3.commit.numCommittedDist::7       794430      0.07%     97.75% # Number of insts commited each cycle
system.switch_cpus3.commit.numCommittedDist::8     23866210      2.25%    100.00% # Number of insts commited each cycle
system.switch_cpus3.commit.numCommittedDist::overflows            0      0.00%    100.00% # Number of insts commited each cycle
system.switch_cpus3.commit.numCommittedDist::min_value            0                       # Number of insts commited each cycle
system.switch_cpus3.commit.numCommittedDist::max_value            8                       # Number of insts commited each cycle
system.switch_cpus3.commit.numCommittedDist::total   1062058661                       # Number of insts commited each cycle
system.switch_cpus3.commit.instsCommitted    249964565                       # Number of instructions committed
system.switch_cpus3.commit.opsCommitted     275136550                       # Number of ops (including micro ops) committed
system.switch_cpus3.commit.memRefs          109104216                       # Number of memory references committed
system.switch_cpus3.commit.loads             77806184                       # Number of loads committed
system.switch_cpus3.commit.amos                     0                       # Number of atomic instructions committed
system.switch_cpus3.commit.membars                  0                       # Number of memory barriers committed
system.switch_cpus3.commit.branches           1661192                       # Number of branches committed
system.switch_cpus3.commit.vector                   0                       # Number of committed Vector instructions.
system.switch_cpus3.commit.floating         237222246                       # Number of committed floating point instructions.
system.switch_cpus3.commit.integer          126068872                       # Number of committed integer instructions.
system.switch_cpus3.commit.functionCalls            2                       # Number of function calls committed.
system.switch_cpus3.commit.committedInstType_0::No_OpClass            0      0.00%      0.00% # Class of committed instruction
system.switch_cpus3.commit.committedInstType_0::IntAlu     40317760     14.65%     14.65% # Class of committed instruction
system.switch_cpus3.commit.committedInstType_0::IntMult            0      0.00%     14.65% # Class of committed instruction
system.switch_cpus3.commit.committedInstType_0::IntDiv            0      0.00%     14.65% # Class of committed instruction
system.switch_cpus3.commit.committedInstType_0::FloatAdd            0      0.00%     14.65% # Class of committed instruction
system.switch_cpus3.commit.committedInstType_0::FloatCmp            0      0.00%     14.65% # Class of committed instruction
system.switch_cpus3.commit.committedInstType_0::FloatCvt            0      0.00%     14.65% # Class of committed instruction
system.switch_cpus3.commit.committedInstType_0::FloatMult            0      0.00%     14.65% # Class of committed instruction
system.switch_cpus3.commit.committedInstType_0::FloatMultAcc            0      0.00%     14.65% # Class of committed instruction
system.switch_cpus3.commit.committedInstType_0::FloatDiv            0      0.00%     14.65% # Class of committed instruction
system.switch_cpus3.commit.committedInstType_0::FloatMisc            0      0.00%     14.65% # Class of committed instruction
system.switch_cpus3.commit.committedInstType_0::FloatSqrt            0      0.00%     14.65% # Class of committed instruction
system.switch_cpus3.commit.committedInstType_0::SimdAdd            0      0.00%     14.65% # Class of committed instruction
system.switch_cpus3.commit.committedInstType_0::SimdAddAcc            0      0.00%     14.65% # Class of committed instruction
system.switch_cpus3.commit.committedInstType_0::SimdAlu        36864      0.01%     14.67% # Class of committed instruction
system.switch_cpus3.commit.committedInstType_0::SimdCmp            0      0.00%     14.67% # Class of committed instruction
system.switch_cpus3.commit.committedInstType_0::SimdCvt            0      0.00%     14.67% # Class of committed instruction
system.switch_cpus3.commit.committedInstType_0::SimdMisc            0      0.00%     14.67% # Class of committed instruction
system.switch_cpus3.commit.committedInstType_0::SimdMult            0      0.00%     14.67% # Class of committed instruction
system.switch_cpus3.commit.committedInstType_0::SimdMultAcc            0      0.00%     14.67% # Class of committed instruction
system.switch_cpus3.commit.committedInstType_0::SimdShift            0      0.00%     14.67% # Class of committed instruction
system.switch_cpus3.commit.committedInstType_0::SimdShiftAcc            0      0.00%     14.67% # Class of committed instruction
system.switch_cpus3.commit.committedInstType_0::SimdDiv            0      0.00%     14.67% # Class of committed instruction
system.switch_cpus3.commit.committedInstType_0::SimdSqrt            0      0.00%     14.67% # Class of committed instruction
system.switch_cpus3.commit.committedInstType_0::SimdFloatAdd     77262149     28.08%     42.75% # Class of committed instruction
system.switch_cpus3.commit.committedInstType_0::SimdFloatAlu            0      0.00%     42.75% # Class of committed instruction
system.switch_cpus3.commit.committedInstType_0::SimdFloatCmp            0      0.00%     42.75% # Class of committed instruction
system.switch_cpus3.commit.committedInstType_0::SimdFloatCvt            0      0.00%     42.75% # Class of committed instruction
system.switch_cpus3.commit.committedInstType_0::SimdFloatDiv      1488168      0.54%     43.29% # Class of committed instruction
system.switch_cpus3.commit.committedInstType_0::SimdFloatMisc            0      0.00%     43.29% # Class of committed instruction
system.switch_cpus3.commit.committedInstType_0::SimdFloatMult     46927393     17.06%     60.35% # Class of committed instruction
system.switch_cpus3.commit.committedInstType_0::SimdFloatMultAcc            0      0.00%     60.35% # Class of committed instruction
system.switch_cpus3.commit.committedInstType_0::SimdFloatSqrt            0      0.00%     60.35% # Class of committed instruction
system.switch_cpus3.commit.committedInstType_0::SimdReduceAdd            0      0.00%     60.35% # Class of committed instruction
system.switch_cpus3.commit.committedInstType_0::SimdReduceAlu            0      0.00%     60.35% # Class of committed instruction
system.switch_cpus3.commit.committedInstType_0::SimdReduceCmp            0      0.00%     60.35% # Class of committed instruction
system.switch_cpus3.commit.committedInstType_0::SimdFloatReduceAdd            0      0.00%     60.35% # Class of committed instruction
system.switch_cpus3.commit.committedInstType_0::SimdFloatReduceCmp            0      0.00%     60.35% # Class of committed instruction
system.switch_cpus3.commit.committedInstType_0::SimdAes            0      0.00%     60.35% # Class of committed instruction
system.switch_cpus3.commit.committedInstType_0::SimdAesMix            0      0.00%     60.35% # Class of committed instruction
system.switch_cpus3.commit.committedInstType_0::SimdSha1Hash            0      0.00%     60.35% # Class of committed instruction
system.switch_cpus3.commit.committedInstType_0::SimdSha1Hash2            0      0.00%     60.35% # Class of committed instruction
system.switch_cpus3.commit.committedInstType_0::SimdSha256Hash            0      0.00%     60.35% # Class of committed instruction
system.switch_cpus3.commit.committedInstType_0::SimdSha256Hash2            0      0.00%     60.35% # Class of committed instruction
system.switch_cpus3.commit.committedInstType_0::SimdShaSigma2            0      0.00%     60.35% # Class of committed instruction
system.switch_cpus3.commit.committedInstType_0::SimdShaSigma3            0      0.00%     60.35% # Class of committed instruction
system.switch_cpus3.commit.committedInstType_0::SimdPredAlu            0      0.00%     60.35% # Class of committed instruction
system.switch_cpus3.commit.committedInstType_0::MemRead     20820620      7.57%     67.91% # Class of committed instruction
system.switch_cpus3.commit.committedInstType_0::MemWrite       129028      0.05%     67.96% # Class of committed instruction
system.switch_cpus3.commit.committedInstType_0::FloatMemRead     56985564     20.71%     88.67% # Class of committed instruction
system.switch_cpus3.commit.committedInstType_0::FloatMemWrite     31169004     11.33%    100.00% # Class of committed instruction
system.switch_cpus3.commit.committedInstType_0::IprAccess            0      0.00%    100.00% # Class of committed instruction
system.switch_cpus3.commit.committedInstType_0::InstPrefetch            0      0.00%    100.00% # Class of committed instruction
system.switch_cpus3.commit.committedInstType_0::total    275136550                       # Class of committed instruction
system.switch_cpus3.commit.commitEligibleSamples     23866210                       # number cycles where commit BW limit reached
system.switch_cpus3.decode.idleCycles         5104907                       # Number of cycles decode is idle
system.switch_cpus3.decode.blockedCycles   1022312683                       # Number of cycles decode is blocked
system.switch_cpus3.decode.runCycles         23049890                       # Number of cycles decode is running
system.switch_cpus3.decode.unblockCycles     11625289                       # Number of cycles decode is unblocking
system.switch_cpus3.decode.squashCycles          7496                       # Number of cycles decode is squashing
system.switch_cpus3.decode.branchResolved       608488                       # Number of times decode resolved a  branch
system.switch_cpus3.decode.branchMispred            5                       # Number of times decode detected a branch misprediction
system.switch_cpus3.decode.decodedInsts     275474001                       # Number of instructions handled by decode
system.switch_cpus3.decode.squashedInsts           28                       # Number of squashed instructions handled by decode
system.switch_cpus3.dtb.rdAccesses           77981860                       # TLB accesses on read requests
system.switch_cpus3.dtb.wrAccesses           31305777                       # TLB accesses on write requests
system.switch_cpus3.dtb.rdMisses                83145                       # TLB misses on read requests
system.switch_cpus3.dtb.wrMisses                 5063                       # TLB misses on write requests
system.switch_cpus3.dtb.walker.power_state.pwrStateResidencyTicks::UNDEFINED 14072735929914                       # Cumulative time (in ticks) in various power states
system.switch_cpus3.fetch.icacheStallCycles        13609                       # Number of cycles fetch is stalled on an Icache miss
system.switch_cpus3.fetch.insts             250583926                       # Number of instructions fetch has processed
system.switch_cpus3.fetch.branches            1667850                       # Number of branches that fetch encountered
system.switch_cpus3.fetch.predictedBranches       614709                       # Number of branches that fetch has predicted taken
system.switch_cpus3.fetch.cycles           1062079229                       # Number of cycles fetch has run and was not squashing or blocked
system.switch_cpus3.fetch.squashCycles          15002                       # Number of cycles fetch has spent squashing
system.switch_cpus3.fetch.cacheLines         21909865                       # Number of cache lines fetched
system.switch_cpus3.fetch.icacheSquashes           10                       # Number of outstanding Icache misses that were squashed
system.switch_cpus3.fetch.nisnDist::samples   1062100339                       # Number of instructions fetched each cycle (Total)
system.switch_cpus3.fetch.nisnDist::mean     0.259685                       # Number of instructions fetched each cycle (Total)
system.switch_cpus3.fetch.nisnDist::stdev     1.303433                       # Number of instructions fetched each cycle (Total)
system.switch_cpus3.fetch.nisnDist::underflows            0      0.00%      0.00% # Number of instructions fetched each cycle (Total)
system.switch_cpus3.fetch.nisnDist::0      1015518276     95.61%     95.61% # Number of instructions fetched each cycle (Total)
system.switch_cpus3.fetch.nisnDist::1         2897956      0.27%     95.89% # Number of instructions fetched each cycle (Total)
system.switch_cpus3.fetch.nisnDist::2         2005298      0.19%     96.08% # Number of instructions fetched each cycle (Total)
system.switch_cpus3.fetch.nisnDist::3         2925434      0.28%     96.35% # Number of instructions fetched each cycle (Total)
system.switch_cpus3.fetch.nisnDist::4         5335463      0.50%     96.85% # Number of instructions fetched each cycle (Total)
system.switch_cpus3.fetch.nisnDist::5         5941451      0.56%     97.41% # Number of instructions fetched each cycle (Total)
system.switch_cpus3.fetch.nisnDist::6         3713317      0.35%     97.76% # Number of instructions fetched each cycle (Total)
system.switch_cpus3.fetch.nisnDist::7         3307049      0.31%     98.07% # Number of instructions fetched each cycle (Total)
system.switch_cpus3.fetch.nisnDist::8        20456095      1.93%    100.00% # Number of instructions fetched each cycle (Total)
system.switch_cpus3.fetch.nisnDist::overflows            0      0.00%    100.00% # Number of instructions fetched each cycle (Total)
system.switch_cpus3.fetch.nisnDist::min_value            0                       # Number of instructions fetched each cycle (Total)
system.switch_cpus3.fetch.nisnDist::max_value            8                       # Number of instructions fetched each cycle (Total)
system.switch_cpus3.fetch.nisnDist::total   1062100339                       # Number of instructions fetched each cycle (Total)
system.switch_cpus3.fetch.branchRate         0.001570                       # Number of branch fetches per cycle
system.switch_cpus3.fetch.rate               0.235930                       # Number of inst fetches per cycle
system.switch_cpus3.itb.rdAccesses                  0                       # TLB accesses on read requests
system.switch_cpus3.itb.wrAccesses           21909865                       # TLB accesses on write requests
system.switch_cpus3.itb.rdMisses                    0                       # TLB misses on read requests
system.switch_cpus3.itb.wrMisses                    4                       # TLB misses on write requests
system.switch_cpus3.itb.walker.power_state.pwrStateResidencyTicks::UNDEFINED 14072735929914                       # Cumulative time (in ticks) in various power states
system.switch_cpus3.lsq0.forwLoads           12465698                       # Number of loads that had data forwarded from stores
system.switch_cpus3.lsq0.squashedLoads         177134                       # Number of loads squashed
system.switch_cpus3.lsq0.ignoredResponses           10                       # Number of memory responses ignored because the instruction is squashed
system.switch_cpus3.lsq0.memOrderViolation         2161                       # Number of memory ordering violations
system.switch_cpus3.lsq0.squashedStores         65152                       # Number of stores squashed
system.switch_cpus3.lsq0.rescheduledLoads            0                       # Number of loads that were rescheduled
system.switch_cpus3.lsq0.blockedByCache       5230175                       # Number of times an access to memory failed due to the cache being blocked
system.switch_cpus3.power_state.pwrStateResidencyTicks::OFF 353683392237                       # Cumulative time (in ticks) in various power states
system.switch_cpus3.rename.squashCycles          7496                       # Number of cycles rename is squashing
system.switch_cpus3.rename.idleCycles        10177309                       # Number of cycles rename is idle
system.switch_cpus3.rename.blockCycles      495522101                       # Number of cycles rename is blocking
system.switch_cpus3.rename.serializeStallCycles            0                       # count of cycles rename stalledfor serializing inst
system.switch_cpus3.rename.runCycles         29126387                       # Number of cycles rename is running
system.switch_cpus3.rename.unblockCycles    527266972                       # Number of cycles rename is unblocking
system.switch_cpus3.rename.renamedInsts     275436965                       # Number of instructions processed by rename
system.switch_cpus3.rename.IQFullEvents      25727498                       # Number of times rename has blocked due to IQ full
system.switch_cpus3.rename.LQFullEvents     360854964                       # Number of times rename has blocked due to LQ full
system.switch_cpus3.rename.SQFullEvents     156463774                       # Number of times rename has blocked due to SQ full
system.switch_cpus3.rename.renamedOperands    246837009                       # Number of destination operands rename has renamed
system.switch_cpus3.rename.lookups          837185576                       # Number of register rename lookups that rename has made
system.switch_cpus3.rename.intLookups       254746167                       # Number of integer rename lookups
system.switch_cpus3.rename.fpLookups        455152922                       # Number of floating rename lookups
system.switch_cpus3.rename.committedMaps    246591108                       # Number of HB maps that are committed
system.switch_cpus3.rename.undoneMaps          245901                       # Number of HB maps that are undone due to squashing
system.switch_cpus3.rename.serializing              0                       # count of serializing insts renamed
system.switch_cpus3.rename.tempSerializing            0                       # count of temporary serializing insts renamed
system.switch_cpus3.rename.skidInsts         66549650                       # count of insts added to the skid buffer
system.switch_cpus3.rob.reads              1313621591                       # The number of ROB reads
system.switch_cpus3.rob.writes              550899959                       # The number of ROB writes
system.switch_cpus3.thread0.numInsts        249964565                       # Number of Instructions committed
system.switch_cpus3.thread0.numOps          275136550                       # Number of Ops committed
system.switch_cpus3.thread0.numMemRefs              0                       # Number of Memory References
system.voltage_domain.voltage                       1                       # Voltage in Volts

---------- End Simulation Statistics   ----------
