
---------- Begin Simulation Statistics ----------
final_tick                               19790310859020                       # Number of ticks from beginning of simulation (restored from checkpoints and never reset)
host_inst_rate                                 121871                       # Simulator instruction rate (inst/s)
host_mem_usage                               17063516                       # Number of bytes of host memory used
host_op_rate                                   238526                       # Simulator op (including micro ops) rate (op/s)
host_seconds                                  8205.30                       # Real time elapsed on the host
host_tick_rate                                5784772                       # Simulator tick rate (ticks/s)
sim_freq                                 1000000000000                       # Frequency of simulated ticks
sim_insts                                   999991143                       # Number of instructions simulated
sim_ops                                    1957174636                       # Number of ops (including micro ops) simulated
sim_seconds                                  0.047466                       # Number of seconds simulated
sim_ticks                                 47465804016                       # Number of ticks simulated
system.cpu0.Branches                                1                       # Number of branches fetched
system.cpu0.committedInsts                         15                       # Number of instructions committed
system.cpu0.committedOps                           20                       # Number of ops (including micro ops) committed
system.cpu0.idle_fraction                           0                       # Percentage of idle cycles
system.cpu0.l2bus.snoop_filter.hit_multi_requests            2                       # Number of requests hitting in the snoop filter with multiple (>1) holders of the requested data.
system.cpu0.l2bus.snoop_filter.hit_multi_snoops            0                       # Number of snoops hitting in the snoop filter with multiple (>1) holders of the requested data.
system.cpu0.l2bus.snoop_filter.hit_single_requests         6273                       # Number of requests hitting in the snoop filter with a single holder of the requested data.
system.cpu0.l2bus.snoop_filter.hit_single_snoops            0                       # Number of snoops hitting in the snoop filter with a single holder of the requested data.
system.cpu0.l2bus.snoop_filter.tot_requests        13357                       # Total number of requests made to the snoop filter.
system.cpu0.l2bus.snoop_filter.tot_snoops            0                       # Total number of snoops made to the snoop filter.
system.cpu0.mmucache.mmubus.snoop_filter.hit_multi_requests            0                       # Number of requests hitting in the snoop filter with multiple (>1) holders of the requested data.
system.cpu0.mmucache.mmubus.snoop_filter.hit_multi_snoops            0                       # Number of snoops hitting in the snoop filter with multiple (>1) holders of the requested data.
system.cpu0.mmucache.mmubus.snoop_filter.hit_single_requests            0                       # Number of requests hitting in the snoop filter with a single holder of the requested data.
system.cpu0.mmucache.mmubus.snoop_filter.hit_single_snoops            0                       # Number of snoops hitting in the snoop filter with a single holder of the requested data.
system.cpu0.mmucache.mmubus.snoop_filter.tot_requests            0                       # Total number of requests made to the snoop filter.
system.cpu0.mmucache.mmubus.snoop_filter.tot_snoops            0                       # Total number of snoops made to the snoop filter.
system.cpu0.not_idle_fraction                       1                       # Percentage of non-idle cycles
system.cpu0.numCycles                              30                       # number of cpu cycles simulated
system.cpu0.numWorkItemsCompleted                   0                       # number of work items this cpu completed
system.cpu0.numWorkItemsStarted                     0                       # number of work items this cpu started
system.cpu0.num_busy_cycles                        30                       # Number of busy cycles
system.cpu0.num_cc_register_reads                   5                       # number of times the CC registers were read
system.cpu0.num_cc_register_writes                  2                       # number of times the CC registers were written
system.cpu0.num_conditional_control_insts            1                       # number of instructions that are conditional controls
system.cpu0.num_fp_alu_accesses                     0                       # Number of float alu accesses
system.cpu0.num_fp_insts                            0                       # number of float instructions
system.cpu0.num_fp_register_reads                   0                       # number of times the floating registers were read
system.cpu0.num_fp_register_writes                  0                       # number of times the floating registers were written
system.cpu0.num_func_calls                          0                       # number of times a function call or return occured
system.cpu0.num_idle_cycles                         0                       # Number of idle cycles
system.cpu0.num_int_alu_accesses                   20                       # Number of integer alu accesses
system.cpu0.num_int_insts                          20                       # number of integer instructions
system.cpu0.num_int_register_reads                 49                       # number of times the integer registers were read
system.cpu0.num_int_register_writes                15                       # number of times the integer registers were written
system.cpu0.num_load_insts                          6                       # Number of load instructions
system.cpu0.num_mem_refs                           10                       # number of memory refs
system.cpu0.num_store_insts                         4                       # Number of store instructions
system.cpu0.num_vec_alu_accesses                    0                       # Number of vector alu accesses
system.cpu0.num_vec_insts                           0                       # number of vector instructions
system.cpu0.num_vec_register_reads                  0                       # number of times the vector registers were read
system.cpu0.num_vec_register_writes                 0                       # number of times the vector registers were written
system.cpu0.op_class::No_OpClass                    0      0.00%      0.00% # Class of executed instruction
system.cpu0.op_class::IntAlu                       10     50.00%     50.00% # Class of executed instruction
system.cpu0.op_class::IntMult                       0      0.00%     50.00% # Class of executed instruction
system.cpu0.op_class::IntDiv                        0      0.00%     50.00% # Class of executed instruction
system.cpu0.op_class::FloatAdd                      0      0.00%     50.00% # Class of executed instruction
system.cpu0.op_class::FloatCmp                      0      0.00%     50.00% # Class of executed instruction
system.cpu0.op_class::FloatCvt                      0      0.00%     50.00% # Class of executed instruction
system.cpu0.op_class::FloatMult                     0      0.00%     50.00% # Class of executed instruction
system.cpu0.op_class::FloatMultAcc                  0      0.00%     50.00% # Class of executed instruction
system.cpu0.op_class::FloatDiv                      0      0.00%     50.00% # Class of executed instruction
system.cpu0.op_class::FloatMisc                     0      0.00%     50.00% # Class of executed instruction
system.cpu0.op_class::FloatSqrt                     0      0.00%     50.00% # Class of executed instruction
system.cpu0.op_class::SimdAdd                       0      0.00%     50.00% # Class of executed instruction
system.cpu0.op_class::SimdAddAcc                    0      0.00%     50.00% # Class of executed instruction
system.cpu0.op_class::SimdAlu                       0      0.00%     50.00% # Class of executed instruction
system.cpu0.op_class::SimdCmp                       0      0.00%     50.00% # Class of executed instruction
system.cpu0.op_class::SimdCvt                       0      0.00%     50.00% # Class of executed instruction
system.cpu0.op_class::SimdMisc                      0      0.00%     50.00% # Class of executed instruction
system.cpu0.op_class::SimdMult                      0      0.00%     50.00% # Class of executed instruction
system.cpu0.op_class::SimdMultAcc                   0      0.00%     50.00% # Class of executed instruction
system.cpu0.op_class::SimdShift                     0      0.00%     50.00% # Class of executed instruction
system.cpu0.op_class::SimdShiftAcc                  0      0.00%     50.00% # Class of executed instruction
system.cpu0.op_class::SimdDiv                       0      0.00%     50.00% # Class of executed instruction
system.cpu0.op_class::SimdSqrt                      0      0.00%     50.00% # Class of executed instruction
system.cpu0.op_class::SimdFloatAdd                  0      0.00%     50.00% # Class of executed instruction
system.cpu0.op_class::SimdFloatAlu                  0      0.00%     50.00% # Class of executed instruction
system.cpu0.op_class::SimdFloatCmp                  0      0.00%     50.00% # Class of executed instruction
system.cpu0.op_class::SimdFloatCvt                  0      0.00%     50.00% # Class of executed instruction
system.cpu0.op_class::SimdFloatDiv                  0      0.00%     50.00% # Class of executed instruction
system.cpu0.op_class::SimdFloatMisc                 0      0.00%     50.00% # Class of executed instruction
system.cpu0.op_class::SimdFloatMult                 0      0.00%     50.00% # Class of executed instruction
system.cpu0.op_class::SimdFloatMultAcc              0      0.00%     50.00% # Class of executed instruction
system.cpu0.op_class::SimdFloatSqrt                 0      0.00%     50.00% # Class of executed instruction
system.cpu0.op_class::SimdReduceAdd                 0      0.00%     50.00% # Class of executed instruction
system.cpu0.op_class::SimdReduceAlu                 0      0.00%     50.00% # Class of executed instruction
system.cpu0.op_class::SimdReduceCmp                 0      0.00%     50.00% # Class of executed instruction
system.cpu0.op_class::SimdFloatReduceAdd            0      0.00%     50.00% # Class of executed instruction
system.cpu0.op_class::SimdFloatReduceCmp            0      0.00%     50.00% # Class of executed instruction
system.cpu0.op_class::SimdAes                       0      0.00%     50.00% # Class of executed instruction
system.cpu0.op_class::SimdAesMix                    0      0.00%     50.00% # Class of executed instruction
system.cpu0.op_class::SimdSha1Hash                  0      0.00%     50.00% # Class of executed instruction
system.cpu0.op_class::SimdSha1Hash2                 0      0.00%     50.00% # Class of executed instruction
system.cpu0.op_class::SimdSha256Hash                0      0.00%     50.00% # Class of executed instruction
system.cpu0.op_class::SimdSha256Hash2               0      0.00%     50.00% # Class of executed instruction
system.cpu0.op_class::SimdShaSigma2                 0      0.00%     50.00% # Class of executed instruction
system.cpu0.op_class::SimdShaSigma3                 0      0.00%     50.00% # Class of executed instruction
system.cpu0.op_class::SimdPredAlu                   0      0.00%     50.00% # Class of executed instruction
system.cpu0.op_class::MemRead                       6     30.00%     80.00% # Class of executed instruction
system.cpu0.op_class::MemWrite                      4     20.00%    100.00% # Class of executed instruction
system.cpu0.op_class::FloatMemRead                  0      0.00%    100.00% # Class of executed instruction
system.cpu0.op_class::FloatMemWrite                 0      0.00%    100.00% # Class of executed instruction
system.cpu0.op_class::IprAccess                     0      0.00%    100.00% # Class of executed instruction
system.cpu0.op_class::InstPrefetch                  0      0.00%    100.00% # Class of executed instruction
system.cpu0.op_class::total                        20                       # Class of executed instruction
system.cpu0.workload.numSyscalls                    0                       # Number of system calls
system.cpu1.Branches                                1                       # Number of branches fetched
system.cpu1.committedInsts                         15                       # Number of instructions committed
system.cpu1.committedOps                           20                       # Number of ops (including micro ops) committed
system.cpu1.idle_fraction                           0                       # Percentage of idle cycles
system.cpu1.l2bus.snoop_filter.hit_multi_requests            2                       # Number of requests hitting in the snoop filter with multiple (>1) holders of the requested data.
system.cpu1.l2bus.snoop_filter.hit_multi_snoops            0                       # Number of snoops hitting in the snoop filter with multiple (>1) holders of the requested data.
system.cpu1.l2bus.snoop_filter.hit_single_requests         6272                       # Number of requests hitting in the snoop filter with a single holder of the requested data.
system.cpu1.l2bus.snoop_filter.hit_single_snoops            0                       # Number of snoops hitting in the snoop filter with a single holder of the requested data.
system.cpu1.l2bus.snoop_filter.tot_requests        13355                       # Total number of requests made to the snoop filter.
system.cpu1.l2bus.snoop_filter.tot_snoops            0                       # Total number of snoops made to the snoop filter.
system.cpu1.mmucache.mmubus.snoop_filter.hit_multi_requests            0                       # Number of requests hitting in the snoop filter with multiple (>1) holders of the requested data.
system.cpu1.mmucache.mmubus.snoop_filter.hit_multi_snoops            0                       # Number of snoops hitting in the snoop filter with multiple (>1) holders of the requested data.
system.cpu1.mmucache.mmubus.snoop_filter.hit_single_requests            0                       # Number of requests hitting in the snoop filter with a single holder of the requested data.
system.cpu1.mmucache.mmubus.snoop_filter.hit_single_snoops            0                       # Number of snoops hitting in the snoop filter with a single holder of the requested data.
system.cpu1.mmucache.mmubus.snoop_filter.tot_requests            0                       # Total number of requests made to the snoop filter.
system.cpu1.mmucache.mmubus.snoop_filter.tot_snoops            0                       # Total number of snoops made to the snoop filter.
system.cpu1.not_idle_fraction                       1                       # Percentage of non-idle cycles
system.cpu1.numCycles                              30                       # number of cpu cycles simulated
system.cpu1.numWorkItemsCompleted                   0                       # number of work items this cpu completed
system.cpu1.numWorkItemsStarted                     0                       # number of work items this cpu started
system.cpu1.num_busy_cycles                        30                       # Number of busy cycles
system.cpu1.num_cc_register_reads                   5                       # number of times the CC registers were read
system.cpu1.num_cc_register_writes                  2                       # number of times the CC registers were written
system.cpu1.num_conditional_control_insts            1                       # number of instructions that are conditional controls
system.cpu1.num_fp_alu_accesses                     0                       # Number of float alu accesses
system.cpu1.num_fp_insts                            0                       # number of float instructions
system.cpu1.num_fp_register_reads                   0                       # number of times the floating registers were read
system.cpu1.num_fp_register_writes                  0                       # number of times the floating registers were written
system.cpu1.num_func_calls                          0                       # number of times a function call or return occured
system.cpu1.num_idle_cycles                         0                       # Number of idle cycles
system.cpu1.num_int_alu_accesses                   20                       # Number of integer alu accesses
system.cpu1.num_int_insts                          20                       # number of integer instructions
system.cpu1.num_int_register_reads                 49                       # number of times the integer registers were read
system.cpu1.num_int_register_writes                15                       # number of times the integer registers were written
system.cpu1.num_load_insts                          6                       # Number of load instructions
system.cpu1.num_mem_refs                           10                       # number of memory refs
system.cpu1.num_store_insts                         4                       # Number of store instructions
system.cpu1.num_vec_alu_accesses                    0                       # Number of vector alu accesses
system.cpu1.num_vec_insts                           0                       # number of vector instructions
system.cpu1.num_vec_register_reads                  0                       # number of times the vector registers were read
system.cpu1.num_vec_register_writes                 0                       # number of times the vector registers were written
system.cpu1.op_class::No_OpClass                    0      0.00%      0.00% # Class of executed instruction
system.cpu1.op_class::IntAlu                       10     50.00%     50.00% # Class of executed instruction
system.cpu1.op_class::IntMult                       0      0.00%     50.00% # Class of executed instruction
system.cpu1.op_class::IntDiv                        0      0.00%     50.00% # Class of executed instruction
system.cpu1.op_class::FloatAdd                      0      0.00%     50.00% # Class of executed instruction
system.cpu1.op_class::FloatCmp                      0      0.00%     50.00% # Class of executed instruction
system.cpu1.op_class::FloatCvt                      0      0.00%     50.00% # Class of executed instruction
system.cpu1.op_class::FloatMult                     0      0.00%     50.00% # Class of executed instruction
system.cpu1.op_class::FloatMultAcc                  0      0.00%     50.00% # Class of executed instruction
system.cpu1.op_class::FloatDiv                      0      0.00%     50.00% # Class of executed instruction
system.cpu1.op_class::FloatMisc                     0      0.00%     50.00% # Class of executed instruction
system.cpu1.op_class::FloatSqrt                     0      0.00%     50.00% # Class of executed instruction
system.cpu1.op_class::SimdAdd                       0      0.00%     50.00% # Class of executed instruction
system.cpu1.op_class::SimdAddAcc                    0      0.00%     50.00% # Class of executed instruction
system.cpu1.op_class::SimdAlu                       0      0.00%     50.00% # Class of executed instruction
system.cpu1.op_class::SimdCmp                       0      0.00%     50.00% # Class of executed instruction
system.cpu1.op_class::SimdCvt                       0      0.00%     50.00% # Class of executed instruction
system.cpu1.op_class::SimdMisc                      0      0.00%     50.00% # Class of executed instruction
system.cpu1.op_class::SimdMult                      0      0.00%     50.00% # Class of executed instruction
system.cpu1.op_class::SimdMultAcc                   0      0.00%     50.00% # Class of executed instruction
system.cpu1.op_class::SimdShift                     0      0.00%     50.00% # Class of executed instruction
system.cpu1.op_class::SimdShiftAcc                  0      0.00%     50.00% # Class of executed instruction
system.cpu1.op_class::SimdDiv                       0      0.00%     50.00% # Class of executed instruction
system.cpu1.op_class::SimdSqrt                      0      0.00%     50.00% # Class of executed instruction
system.cpu1.op_class::SimdFloatAdd                  0      0.00%     50.00% # Class of executed instruction
system.cpu1.op_class::SimdFloatAlu                  0      0.00%     50.00% # Class of executed instruction
system.cpu1.op_class::SimdFloatCmp                  0      0.00%     50.00% # Class of executed instruction
system.cpu1.op_class::SimdFloatCvt                  0      0.00%     50.00% # Class of executed instruction
system.cpu1.op_class::SimdFloatDiv                  0      0.00%     50.00% # Class of executed instruction
system.cpu1.op_class::SimdFloatMisc                 0      0.00%     50.00% # Class of executed instruction
system.cpu1.op_class::SimdFloatMult                 0      0.00%     50.00% # Class of executed instruction
system.cpu1.op_class::SimdFloatMultAcc              0      0.00%     50.00% # Class of executed instruction
system.cpu1.op_class::SimdFloatSqrt                 0      0.00%     50.00% # Class of executed instruction
system.cpu1.op_class::SimdReduceAdd                 0      0.00%     50.00% # Class of executed instruction
system.cpu1.op_class::SimdReduceAlu                 0      0.00%     50.00% # Class of executed instruction
system.cpu1.op_class::SimdReduceCmp                 0      0.00%     50.00% # Class of executed instruction
system.cpu1.op_class::SimdFloatReduceAdd            0      0.00%     50.00% # Class of executed instruction
system.cpu1.op_class::SimdFloatReduceCmp            0      0.00%     50.00% # Class of executed instruction
system.cpu1.op_class::SimdAes                       0      0.00%     50.00% # Class of executed instruction
system.cpu1.op_class::SimdAesMix                    0      0.00%     50.00% # Class of executed instruction
system.cpu1.op_class::SimdSha1Hash                  0      0.00%     50.00% # Class of executed instruction
system.cpu1.op_class::SimdSha1Hash2                 0      0.00%     50.00% # Class of executed instruction
system.cpu1.op_class::SimdSha256Hash                0      0.00%     50.00% # Class of executed instruction
system.cpu1.op_class::SimdSha256Hash2               0      0.00%     50.00% # Class of executed instruction
system.cpu1.op_class::SimdShaSigma2                 0      0.00%     50.00% # Class of executed instruction
system.cpu1.op_class::SimdShaSigma3                 0      0.00%     50.00% # Class of executed instruction
system.cpu1.op_class::SimdPredAlu                   0      0.00%     50.00% # Class of executed instruction
system.cpu1.op_class::MemRead                       6     30.00%     80.00% # Class of executed instruction
system.cpu1.op_class::MemWrite                      4     20.00%    100.00% # Class of executed instruction
system.cpu1.op_class::FloatMemRead                  0      0.00%    100.00% # Class of executed instruction
system.cpu1.op_class::FloatMemWrite                 0      0.00%    100.00% # Class of executed instruction
system.cpu1.op_class::IprAccess                     0      0.00%    100.00% # Class of executed instruction
system.cpu1.op_class::InstPrefetch                  0      0.00%    100.00% # Class of executed instruction
system.cpu1.op_class::total                        20                       # Class of executed instruction
system.cpu1.workload.numSyscalls                    0                       # Number of system calls
system.cpu2.Branches                                1                       # Number of branches fetched
system.cpu2.committedInsts                         15                       # Number of instructions committed
system.cpu2.committedOps                           20                       # Number of ops (including micro ops) committed
system.cpu2.idle_fraction                           0                       # Percentage of idle cycles
system.cpu2.l2bus.snoop_filter.hit_multi_requests            2                       # Number of requests hitting in the snoop filter with multiple (>1) holders of the requested data.
system.cpu2.l2bus.snoop_filter.hit_multi_snoops            0                       # Number of snoops hitting in the snoop filter with multiple (>1) holders of the requested data.
system.cpu2.l2bus.snoop_filter.hit_single_requests         6271                       # Number of requests hitting in the snoop filter with a single holder of the requested data.
system.cpu2.l2bus.snoop_filter.hit_single_snoops            0                       # Number of snoops hitting in the snoop filter with a single holder of the requested data.
system.cpu2.l2bus.snoop_filter.tot_requests        13353                       # Total number of requests made to the snoop filter.
system.cpu2.l2bus.snoop_filter.tot_snoops            0                       # Total number of snoops made to the snoop filter.
system.cpu2.mmucache.mmubus.snoop_filter.hit_multi_requests            0                       # Number of requests hitting in the snoop filter with multiple (>1) holders of the requested data.
system.cpu2.mmucache.mmubus.snoop_filter.hit_multi_snoops            0                       # Number of snoops hitting in the snoop filter with multiple (>1) holders of the requested data.
system.cpu2.mmucache.mmubus.snoop_filter.hit_single_requests            0                       # Number of requests hitting in the snoop filter with a single holder of the requested data.
system.cpu2.mmucache.mmubus.snoop_filter.hit_single_snoops            0                       # Number of snoops hitting in the snoop filter with a single holder of the requested data.
system.cpu2.mmucache.mmubus.snoop_filter.tot_requests            0                       # Total number of requests made to the snoop filter.
system.cpu2.mmucache.mmubus.snoop_filter.tot_snoops            0                       # Total number of snoops made to the snoop filter.
system.cpu2.not_idle_fraction                       1                       # Percentage of non-idle cycles
system.cpu2.numCycles                              30                       # number of cpu cycles simulated
system.cpu2.numWorkItemsCompleted                   0                       # number of work items this cpu completed
system.cpu2.numWorkItemsStarted                     0                       # number of work items this cpu started
system.cpu2.num_busy_cycles                        30                       # Number of busy cycles
system.cpu2.num_cc_register_reads                   5                       # number of times the CC registers were read
system.cpu2.num_cc_register_writes                  2                       # number of times the CC registers were written
system.cpu2.num_conditional_control_insts            1                       # number of instructions that are conditional controls
system.cpu2.num_fp_alu_accesses                     0                       # Number of float alu accesses
system.cpu2.num_fp_insts                            0                       # number of float instructions
system.cpu2.num_fp_register_reads                   0                       # number of times the floating registers were read
system.cpu2.num_fp_register_writes                  0                       # number of times the floating registers were written
system.cpu2.num_func_calls                          0                       # number of times a function call or return occured
system.cpu2.num_idle_cycles                         0                       # Number of idle cycles
system.cpu2.num_int_alu_accesses                   20                       # Number of integer alu accesses
system.cpu2.num_int_insts                          20                       # number of integer instructions
system.cpu2.num_int_register_reads                 49                       # number of times the integer registers were read
system.cpu2.num_int_register_writes                15                       # number of times the integer registers were written
system.cpu2.num_load_insts                          6                       # Number of load instructions
system.cpu2.num_mem_refs                           10                       # number of memory refs
system.cpu2.num_store_insts                         4                       # Number of store instructions
system.cpu2.num_vec_alu_accesses                    0                       # Number of vector alu accesses
system.cpu2.num_vec_insts                           0                       # number of vector instructions
system.cpu2.num_vec_register_reads                  0                       # number of times the vector registers were read
system.cpu2.num_vec_register_writes                 0                       # number of times the vector registers were written
system.cpu2.op_class::No_OpClass                    0      0.00%      0.00% # Class of executed instruction
system.cpu2.op_class::IntAlu                       10     50.00%     50.00% # Class of executed instruction
system.cpu2.op_class::IntMult                       0      0.00%     50.00% # Class of executed instruction
system.cpu2.op_class::IntDiv                        0      0.00%     50.00% # Class of executed instruction
system.cpu2.op_class::FloatAdd                      0      0.00%     50.00% # Class of executed instruction
system.cpu2.op_class::FloatCmp                      0      0.00%     50.00% # Class of executed instruction
system.cpu2.op_class::FloatCvt                      0      0.00%     50.00% # Class of executed instruction
system.cpu2.op_class::FloatMult                     0      0.00%     50.00% # Class of executed instruction
system.cpu2.op_class::FloatMultAcc                  0      0.00%     50.00% # Class of executed instruction
system.cpu2.op_class::FloatDiv                      0      0.00%     50.00% # Class of executed instruction
system.cpu2.op_class::FloatMisc                     0      0.00%     50.00% # Class of executed instruction
system.cpu2.op_class::FloatSqrt                     0      0.00%     50.00% # Class of executed instruction
system.cpu2.op_class::SimdAdd                       0      0.00%     50.00% # Class of executed instruction
system.cpu2.op_class::SimdAddAcc                    0      0.00%     50.00% # Class of executed instruction
system.cpu2.op_class::SimdAlu                       0      0.00%     50.00% # Class of executed instruction
system.cpu2.op_class::SimdCmp                       0      0.00%     50.00% # Class of executed instruction
system.cpu2.op_class::SimdCvt                       0      0.00%     50.00% # Class of executed instruction
system.cpu2.op_class::SimdMisc                      0      0.00%     50.00% # Class of executed instruction
system.cpu2.op_class::SimdMult                      0      0.00%     50.00% # Class of executed instruction
system.cpu2.op_class::SimdMultAcc                   0      0.00%     50.00% # Class of executed instruction
system.cpu2.op_class::SimdShift                     0      0.00%     50.00% # Class of executed instruction
system.cpu2.op_class::SimdShiftAcc                  0      0.00%     50.00% # Class of executed instruction
system.cpu2.op_class::SimdDiv                       0      0.00%     50.00% # Class of executed instruction
system.cpu2.op_class::SimdSqrt                      0      0.00%     50.00% # Class of executed instruction
system.cpu2.op_class::SimdFloatAdd                  0      0.00%     50.00% # Class of executed instruction
system.cpu2.op_class::SimdFloatAlu                  0      0.00%     50.00% # Class of executed instruction
system.cpu2.op_class::SimdFloatCmp                  0      0.00%     50.00% # Class of executed instruction
system.cpu2.op_class::SimdFloatCvt                  0      0.00%     50.00% # Class of executed instruction
system.cpu2.op_class::SimdFloatDiv                  0      0.00%     50.00% # Class of executed instruction
system.cpu2.op_class::SimdFloatMisc                 0      0.00%     50.00% # Class of executed instruction
system.cpu2.op_class::SimdFloatMult                 0      0.00%     50.00% # Class of executed instruction
system.cpu2.op_class::SimdFloatMultAcc              0      0.00%     50.00% # Class of executed instruction
system.cpu2.op_class::SimdFloatSqrt                 0      0.00%     50.00% # Class of executed instruction
system.cpu2.op_class::SimdReduceAdd                 0      0.00%     50.00% # Class of executed instruction
system.cpu2.op_class::SimdReduceAlu                 0      0.00%     50.00% # Class of executed instruction
system.cpu2.op_class::SimdReduceCmp                 0      0.00%     50.00% # Class of executed instruction
system.cpu2.op_class::SimdFloatReduceAdd            0      0.00%     50.00% # Class of executed instruction
system.cpu2.op_class::SimdFloatReduceCmp            0      0.00%     50.00% # Class of executed instruction
system.cpu2.op_class::SimdAes                       0      0.00%     50.00% # Class of executed instruction
system.cpu2.op_class::SimdAesMix                    0      0.00%     50.00% # Class of executed instruction
system.cpu2.op_class::SimdSha1Hash                  0      0.00%     50.00% # Class of executed instruction
system.cpu2.op_class::SimdSha1Hash2                 0      0.00%     50.00% # Class of executed instruction
system.cpu2.op_class::SimdSha256Hash                0      0.00%     50.00% # Class of executed instruction
system.cpu2.op_class::SimdSha256Hash2               0      0.00%     50.00% # Class of executed instruction
system.cpu2.op_class::SimdShaSigma2                 0      0.00%     50.00% # Class of executed instruction
system.cpu2.op_class::SimdShaSigma3                 0      0.00%     50.00% # Class of executed instruction
system.cpu2.op_class::SimdPredAlu                   0      0.00%     50.00% # Class of executed instruction
system.cpu2.op_class::MemRead                       6     30.00%     80.00% # Class of executed instruction
system.cpu2.op_class::MemWrite                      4     20.00%    100.00% # Class of executed instruction
system.cpu2.op_class::FloatMemRead                  0      0.00%    100.00% # Class of executed instruction
system.cpu2.op_class::FloatMemWrite                 0      0.00%    100.00% # Class of executed instruction
system.cpu2.op_class::IprAccess                     0      0.00%    100.00% # Class of executed instruction
system.cpu2.op_class::InstPrefetch                  0      0.00%    100.00% # Class of executed instruction
system.cpu2.op_class::total                        20                       # Class of executed instruction
system.cpu2.workload.numSyscalls                    0                       # Number of system calls
system.cpu3.Branches                                1                       # Number of branches fetched
system.cpu3.committedInsts                         15                       # Number of instructions committed
system.cpu3.committedOps                           20                       # Number of ops (including micro ops) committed
system.cpu3.idle_fraction                           0                       # Percentage of idle cycles
system.cpu3.l2bus.snoop_filter.hit_multi_requests            2                       # Number of requests hitting in the snoop filter with multiple (>1) holders of the requested data.
system.cpu3.l2bus.snoop_filter.hit_multi_snoops            0                       # Number of snoops hitting in the snoop filter with multiple (>1) holders of the requested data.
system.cpu3.l2bus.snoop_filter.hit_single_requests         6272                       # Number of requests hitting in the snoop filter with a single holder of the requested data.
system.cpu3.l2bus.snoop_filter.hit_single_snoops            0                       # Number of snoops hitting in the snoop filter with a single holder of the requested data.
system.cpu3.l2bus.snoop_filter.tot_requests        13355                       # Total number of requests made to the snoop filter.
system.cpu3.l2bus.snoop_filter.tot_snoops            0                       # Total number of snoops made to the snoop filter.
system.cpu3.mmucache.mmubus.snoop_filter.hit_multi_requests            0                       # Number of requests hitting in the snoop filter with multiple (>1) holders of the requested data.
system.cpu3.mmucache.mmubus.snoop_filter.hit_multi_snoops            0                       # Number of snoops hitting in the snoop filter with multiple (>1) holders of the requested data.
system.cpu3.mmucache.mmubus.snoop_filter.hit_single_requests            0                       # Number of requests hitting in the snoop filter with a single holder of the requested data.
system.cpu3.mmucache.mmubus.snoop_filter.hit_single_snoops            0                       # Number of snoops hitting in the snoop filter with a single holder of the requested data.
system.cpu3.mmucache.mmubus.snoop_filter.tot_requests            0                       # Total number of requests made to the snoop filter.
system.cpu3.mmucache.mmubus.snoop_filter.tot_snoops            0                       # Total number of snoops made to the snoop filter.
system.cpu3.not_idle_fraction                       1                       # Percentage of non-idle cycles
system.cpu3.numCycles                              30                       # number of cpu cycles simulated
system.cpu3.numWorkItemsCompleted                   0                       # number of work items this cpu completed
system.cpu3.numWorkItemsStarted                     0                       # number of work items this cpu started
system.cpu3.num_busy_cycles                        30                       # Number of busy cycles
system.cpu3.num_cc_register_reads                   5                       # number of times the CC registers were read
system.cpu3.num_cc_register_writes                  2                       # number of times the CC registers were written
system.cpu3.num_conditional_control_insts            1                       # number of instructions that are conditional controls
system.cpu3.num_fp_alu_accesses                     0                       # Number of float alu accesses
system.cpu3.num_fp_insts                            0                       # number of float instructions
system.cpu3.num_fp_register_reads                   0                       # number of times the floating registers were read
system.cpu3.num_fp_register_writes                  0                       # number of times the floating registers were written
system.cpu3.num_func_calls                          0                       # number of times a function call or return occured
system.cpu3.num_idle_cycles                         0                       # Number of idle cycles
system.cpu3.num_int_alu_accesses                   20                       # Number of integer alu accesses
system.cpu3.num_int_insts                          20                       # number of integer instructions
system.cpu3.num_int_register_reads                 49                       # number of times the integer registers were read
system.cpu3.num_int_register_writes                15                       # number of times the integer registers were written
system.cpu3.num_load_insts                          6                       # Number of load instructions
system.cpu3.num_mem_refs                           10                       # number of memory refs
system.cpu3.num_store_insts                         4                       # Number of store instructions
system.cpu3.num_vec_alu_accesses                    0                       # Number of vector alu accesses
system.cpu3.num_vec_insts                           0                       # number of vector instructions
system.cpu3.num_vec_register_reads                  0                       # number of times the vector registers were read
system.cpu3.num_vec_register_writes                 0                       # number of times the vector registers were written
system.cpu3.op_class::No_OpClass                    0      0.00%      0.00% # Class of executed instruction
system.cpu3.op_class::IntAlu                       10     50.00%     50.00% # Class of executed instruction
system.cpu3.op_class::IntMult                       0      0.00%     50.00% # Class of executed instruction
system.cpu3.op_class::IntDiv                        0      0.00%     50.00% # Class of executed instruction
system.cpu3.op_class::FloatAdd                      0      0.00%     50.00% # Class of executed instruction
system.cpu3.op_class::FloatCmp                      0      0.00%     50.00% # Class of executed instruction
system.cpu3.op_class::FloatCvt                      0      0.00%     50.00% # Class of executed instruction
system.cpu3.op_class::FloatMult                     0      0.00%     50.00% # Class of executed instruction
system.cpu3.op_class::FloatMultAcc                  0      0.00%     50.00% # Class of executed instruction
system.cpu3.op_class::FloatDiv                      0      0.00%     50.00% # Class of executed instruction
system.cpu3.op_class::FloatMisc                     0      0.00%     50.00% # Class of executed instruction
system.cpu3.op_class::FloatSqrt                     0      0.00%     50.00% # Class of executed instruction
system.cpu3.op_class::SimdAdd                       0      0.00%     50.00% # Class of executed instruction
system.cpu3.op_class::SimdAddAcc                    0      0.00%     50.00% # Class of executed instruction
system.cpu3.op_class::SimdAlu                       0      0.00%     50.00% # Class of executed instruction
system.cpu3.op_class::SimdCmp                       0      0.00%     50.00% # Class of executed instruction
system.cpu3.op_class::SimdCvt                       0      0.00%     50.00% # Class of executed instruction
system.cpu3.op_class::SimdMisc                      0      0.00%     50.00% # Class of executed instruction
system.cpu3.op_class::SimdMult                      0      0.00%     50.00% # Class of executed instruction
system.cpu3.op_class::SimdMultAcc                   0      0.00%     50.00% # Class of executed instruction
system.cpu3.op_class::SimdShift                     0      0.00%     50.00% # Class of executed instruction
system.cpu3.op_class::SimdShiftAcc                  0      0.00%     50.00% # Class of executed instruction
system.cpu3.op_class::SimdDiv                       0      0.00%     50.00% # Class of executed instruction
system.cpu3.op_class::SimdSqrt                      0      0.00%     50.00% # Class of executed instruction
system.cpu3.op_class::SimdFloatAdd                  0      0.00%     50.00% # Class of executed instruction
system.cpu3.op_class::SimdFloatAlu                  0      0.00%     50.00% # Class of executed instruction
system.cpu3.op_class::SimdFloatCmp                  0      0.00%     50.00% # Class of executed instruction
system.cpu3.op_class::SimdFloatCvt                  0      0.00%     50.00% # Class of executed instruction
system.cpu3.op_class::SimdFloatDiv                  0      0.00%     50.00% # Class of executed instruction
system.cpu3.op_class::SimdFloatMisc                 0      0.00%     50.00% # Class of executed instruction
system.cpu3.op_class::SimdFloatMult                 0      0.00%     50.00% # Class of executed instruction
system.cpu3.op_class::SimdFloatMultAcc              0      0.00%     50.00% # Class of executed instruction
system.cpu3.op_class::SimdFloatSqrt                 0      0.00%     50.00% # Class of executed instruction
system.cpu3.op_class::SimdReduceAdd                 0      0.00%     50.00% # Class of executed instruction
system.cpu3.op_class::SimdReduceAlu                 0      0.00%     50.00% # Class of executed instruction
system.cpu3.op_class::SimdReduceCmp                 0      0.00%     50.00% # Class of executed instruction
system.cpu3.op_class::SimdFloatReduceAdd            0      0.00%     50.00% # Class of executed instruction
system.cpu3.op_class::SimdFloatReduceCmp            0      0.00%     50.00% # Class of executed instruction
system.cpu3.op_class::SimdAes                       0      0.00%     50.00% # Class of executed instruction
system.cpu3.op_class::SimdAesMix                    0      0.00%     50.00% # Class of executed instruction
system.cpu3.op_class::SimdSha1Hash                  0      0.00%     50.00% # Class of executed instruction
system.cpu3.op_class::SimdSha1Hash2                 0      0.00%     50.00% # Class of executed instruction
system.cpu3.op_class::SimdSha256Hash                0      0.00%     50.00% # Class of executed instruction
system.cpu3.op_class::SimdSha256Hash2               0      0.00%     50.00% # Class of executed instruction
system.cpu3.op_class::SimdShaSigma2                 0      0.00%     50.00% # Class of executed instruction
system.cpu3.op_class::SimdShaSigma3                 0      0.00%     50.00% # Class of executed instruction
system.cpu3.op_class::SimdPredAlu                   0      0.00%     50.00% # Class of executed instruction
system.cpu3.op_class::MemRead                       6     30.00%     80.00% # Class of executed instruction
system.cpu3.op_class::MemWrite                      4     20.00%    100.00% # Class of executed instruction
system.cpu3.op_class::FloatMemRead                  0      0.00%    100.00% # Class of executed instruction
system.cpu3.op_class::FloatMemWrite                 0      0.00%    100.00% # Class of executed instruction
system.cpu3.op_class::IprAccess                     0      0.00%    100.00% # Class of executed instruction
system.cpu3.op_class::InstPrefetch                  0      0.00%    100.00% # Class of executed instruction
system.cpu3.op_class::total                        20                       # Class of executed instruction
system.cpu3.workload.numSyscalls                    0                       # Number of system calls
system.l3bus.snoop_filter.hit_multi_requests            0                       # Number of requests hitting in the snoop filter with multiple (>1) holders of the requested data.
system.l3bus.snoop_filter.hit_multi_snoops            0                       # Number of snoops hitting in the snoop filter with multiple (>1) holders of the requested data.
system.l3bus.snoop_filter.hit_single_requests            0                       # Number of requests hitting in the snoop filter with a single holder of the requested data.
system.l3bus.snoop_filter.hit_single_snoops            0                       # Number of snoops hitting in the snoop filter with a single holder of the requested data.
system.l3bus.snoop_filter.tot_requests           6770                       # Total number of requests made to the snoop filter.
system.l3bus.snoop_filter.tot_snoops                0                       # Total number of snoops made to the snoop filter.
system.membus.snoop_filter.hit_multi_requests            0                       # Number of requests hitting in the snoop filter with multiple (>1) holders of the requested data.
system.membus.snoop_filter.hit_multi_snoops            0                       # Number of snoops hitting in the snoop filter with multiple (>1) holders of the requested data.
system.membus.snoop_filter.hit_single_requests            0                       # Number of requests hitting in the snoop filter with a single holder of the requested data.
system.membus.snoop_filter.hit_single_snoops            0                       # Number of snoops hitting in the snoop filter with a single holder of the requested data.
system.membus.snoop_filter.tot_requests          6770                       # Total number of requests made to the snoop filter.
system.membus.snoop_filter.tot_snoops               0                       # Total number of snoops made to the snoop filter.
system.switch_cpus0.cc_regfile_reads        236349555                       # number of cc regfile reads
system.switch_cpus0.cc_regfile_writes       244400337                       # number of cc regfile writes
system.switch_cpus0.committedInsts          249996655                       # Number of Instructions Simulated
system.switch_cpus0.committedOps            489291529                       # Number of Ops (including micro ops) Simulated
system.switch_cpus0.cpi                      0.570167                       # CPI: Cycles Per Instruction
system.switch_cpus0.cpi_total                0.570167                       # CPI: Total CPI of All Threads
system.switch_cpus0.fp_regfile_reads             6330                       # number of floating regfile reads
system.switch_cpus0.fp_regfile_writes            6395                       # number of floating regfile writes
system.switch_cpus0.idleCycles                 211826                       # Total number of cycles that the CPU has spent unscheduled due to idling
system.switch_cpus0.iew.branchMispredicts      3090145                       # Number of branch mispredicts detected at execute
system.switch_cpus0.iew.exec_branches        46284677                       # Number of branches executed
system.switch_cpus0.iew.exec_nop                    0                       # number of nop insts executed
system.switch_cpus0.iew.exec_rate            4.129013                       # Inst execution rate
system.switch_cpus0.iew.exec_refs           174192165                       # number of memory reference insts executed
system.switch_cpus0.iew.exec_stores          47230763                       # Number of stores executed
system.switch_cpus0.iew.exec_swp                    0                       # number of swp insts executed
system.switch_cpus0.iew.iewBlockCycles       18221725                       # Number of cycles IEW is blocking
system.switch_cpus0.iew.iewDispLoadInsts    138992226                       # Number of dispatched load instructions
system.switch_cpus0.iew.iewDispNonSpecInsts            0                       # Number of dispatched non-speculative instructions
system.switch_cpus0.iew.iewDispSquashedInsts        13291                       # Number of squashed instructions skipped by dispatch
system.switch_cpus0.iew.iewDispStoreInsts     55588231                       # Number of dispatched store instructions
system.switch_cpus0.iew.iewDispatchedInsts    644093390                       # Number of instructions dispatched to IQ
system.switch_cpus0.iew.iewExecLoadInsts    126961402                       # Number of load instructions executed
system.switch_cpus0.iew.iewExecSquashedInsts      8552818                       # Number of squashed instructions skipped in execute
system.switch_cpus0.iew.iewExecutedInsts    588549140                       # Number of executed instructions
system.switch_cpus0.iew.iewIQFullEvents            24                       # Number of times the IQ has become full, causing a stall
system.switch_cpus0.iew.iewIdleCycles               0                       # Number of cycles IEW is idle
system.switch_cpus0.iew.iewLSQFullEvents         3030                       # Number of times the LSQ has become full, causing a stall
system.switch_cpus0.iew.iewSquashCycles       2516713                       # Number of cycles IEW is squashing
system.switch_cpus0.iew.iewUnblockCycles         3063                       # Number of cycles IEW is unblocking
system.switch_cpus0.iew.memOrderViolationEvents        41495                       # Number of memory order violations
system.switch_cpus0.iew.predictedNotTakenIncorrect      1521937                       # Number of branches that were predicted not taken incorrectly
system.switch_cpus0.iew.predictedTakenIncorrect      1568208                       # Number of branches that were predicted taken incorrectly
system.switch_cpus0.iew.wb_consumers        658611585                       # num instructions consuming a value
system.switch_cpus0.iew.wb_count            584476909                       # cumulative count of insts written-back
system.switch_cpus0.iew.wb_fanout            0.668697                       # average fanout of values written-back
system.switch_cpus0.iew.wb_producers        440411623                       # num instructions producing a value
system.switch_cpus0.iew.wb_rate              4.100444                       # insts written-back per cycle
system.switch_cpus0.iew.wb_sent             587258489                       # cumulative count of insts sent to commit
system.switch_cpus0.int_regfile_reads       852595730                       # number of integer regfile reads
system.switch_cpus0.int_regfile_writes      494130429                       # number of integer regfile writes
system.switch_cpus0.ipc                      1.753871                       # IPC: Instructions Per Cycle
system.switch_cpus0.ipc_total                1.753871                       # IPC: Total IPC of All Threads
system.switch_cpus0.iq.FU_type_0::No_OpClass      1212330      0.20%      0.20% # Type of FU issued
system.switch_cpus0.iq.FU_type_0::IntAlu    413964848     69.33%     69.53% # Type of FU issued
system.switch_cpus0.iq.FU_type_0::IntMult      3578745      0.60%     70.13% # Type of FU issued
system.switch_cpus0.iq.FU_type_0::IntDiv        24111      0.00%     70.14% # Type of FU issued
system.switch_cpus0.iq.FU_type_0::FloatAdd            0      0.00%     70.14% # Type of FU issued
system.switch_cpus0.iq.FU_type_0::FloatCmp            0      0.00%     70.14% # Type of FU issued
system.switch_cpus0.iq.FU_type_0::FloatCvt            0      0.00%     70.14% # Type of FU issued
system.switch_cpus0.iq.FU_type_0::FloatMult            0      0.00%     70.14% # Type of FU issued
system.switch_cpus0.iq.FU_type_0::FloatMultAcc            0      0.00%     70.14% # Type of FU issued
system.switch_cpus0.iq.FU_type_0::FloatDiv            0      0.00%     70.14% # Type of FU issued
system.switch_cpus0.iq.FU_type_0::FloatMisc            0      0.00%     70.14% # Type of FU issued
system.switch_cpus0.iq.FU_type_0::FloatSqrt            0      0.00%     70.14% # Type of FU issued
system.switch_cpus0.iq.FU_type_0::SimdAdd            0      0.00%     70.14% # Type of FU issued
system.switch_cpus0.iq.FU_type_0::SimdAddAcc            0      0.00%     70.14% # Type of FU issued
system.switch_cpus0.iq.FU_type_0::SimdAlu            0      0.00%     70.14% # Type of FU issued
system.switch_cpus0.iq.FU_type_0::SimdCmp            0      0.00%     70.14% # Type of FU issued
system.switch_cpus0.iq.FU_type_0::SimdCvt            0      0.00%     70.14% # Type of FU issued
system.switch_cpus0.iq.FU_type_0::SimdMisc            0      0.00%     70.14% # Type of FU issued
system.switch_cpus0.iq.FU_type_0::SimdMult            0      0.00%     70.14% # Type of FU issued
system.switch_cpus0.iq.FU_type_0::SimdMultAcc            0      0.00%     70.14% # Type of FU issued
system.switch_cpus0.iq.FU_type_0::SimdShift            0      0.00%     70.14% # Type of FU issued
system.switch_cpus0.iq.FU_type_0::SimdShiftAcc            0      0.00%     70.14% # Type of FU issued
system.switch_cpus0.iq.FU_type_0::SimdDiv            0      0.00%     70.14% # Type of FU issued
system.switch_cpus0.iq.FU_type_0::SimdSqrt            0      0.00%     70.14% # Type of FU issued
system.switch_cpus0.iq.FU_type_0::SimdFloatAdd            0      0.00%     70.14% # Type of FU issued
system.switch_cpus0.iq.FU_type_0::SimdFloatAlu            0      0.00%     70.14% # Type of FU issued
system.switch_cpus0.iq.FU_type_0::SimdFloatCmp            0      0.00%     70.14% # Type of FU issued
system.switch_cpus0.iq.FU_type_0::SimdFloatCvt            0      0.00%     70.14% # Type of FU issued
system.switch_cpus0.iq.FU_type_0::SimdFloatDiv            0      0.00%     70.14% # Type of FU issued
system.switch_cpus0.iq.FU_type_0::SimdFloatMisc            0      0.00%     70.14% # Type of FU issued
system.switch_cpus0.iq.FU_type_0::SimdFloatMult            0      0.00%     70.14% # Type of FU issued
system.switch_cpus0.iq.FU_type_0::SimdFloatMultAcc            0      0.00%     70.14% # Type of FU issued
system.switch_cpus0.iq.FU_type_0::SimdFloatSqrt            0      0.00%     70.14% # Type of FU issued
system.switch_cpus0.iq.FU_type_0::SimdReduceAdd            0      0.00%     70.14% # Type of FU issued
system.switch_cpus0.iq.FU_type_0::SimdReduceAlu            0      0.00%     70.14% # Type of FU issued
system.switch_cpus0.iq.FU_type_0::SimdReduceCmp            0      0.00%     70.14% # Type of FU issued
system.switch_cpus0.iq.FU_type_0::SimdFloatReduceAdd            0      0.00%     70.14% # Type of FU issued
system.switch_cpus0.iq.FU_type_0::SimdFloatReduceCmp            0      0.00%     70.14% # Type of FU issued
system.switch_cpus0.iq.FU_type_0::SimdAes            0      0.00%     70.14% # Type of FU issued
system.switch_cpus0.iq.FU_type_0::SimdAesMix            0      0.00%     70.14% # Type of FU issued
system.switch_cpus0.iq.FU_type_0::SimdSha1Hash            0      0.00%     70.14% # Type of FU issued
system.switch_cpus0.iq.FU_type_0::SimdSha1Hash2            0      0.00%     70.14% # Type of FU issued
system.switch_cpus0.iq.FU_type_0::SimdSha256Hash            0      0.00%     70.14% # Type of FU issued
system.switch_cpus0.iq.FU_type_0::SimdSha256Hash2            0      0.00%     70.14% # Type of FU issued
system.switch_cpus0.iq.FU_type_0::SimdShaSigma2            0      0.00%     70.14% # Type of FU issued
system.switch_cpus0.iq.FU_type_0::SimdShaSigma3            0      0.00%     70.14% # Type of FU issued
system.switch_cpus0.iq.FU_type_0::SimdPredAlu            0      0.00%     70.14% # Type of FU issued
system.switch_cpus0.iq.FU_type_0::MemRead    130054109     21.78%     91.92% # Type of FU issued
system.switch_cpus0.iq.FU_type_0::MemWrite     48255074      8.08%    100.00% # Type of FU issued
system.switch_cpus0.iq.FU_type_0::FloatMemRead         6402      0.00%    100.00% # Type of FU issued
system.switch_cpus0.iq.FU_type_0::FloatMemWrite         6340      0.00%    100.00% # Type of FU issued
system.switch_cpus0.iq.FU_type_0::IprAccess            0      0.00%    100.00% # Type of FU issued
system.switch_cpus0.iq.FU_type_0::InstPrefetch            0      0.00%    100.00% # Type of FU issued
system.switch_cpus0.iq.FU_type_0::total     597101959                       # Type of FU issued
system.switch_cpus0.iq.fp_alu_accesses          18302                       # Number of floating point alu accesses
system.switch_cpus0.iq.fp_inst_queue_reads        31049                       # Number of floating instruction queue reads
system.switch_cpus0.iq.fp_inst_queue_wakeup_accesses        12646                       # Number of floating instruction queue wakeup accesses
system.switch_cpus0.iq.fp_inst_queue_writes        13390                       # Number of floating instruction queue writes
system.switch_cpus0.iq.fu_busy_cnt           18178542                       # FU busy when requested
system.switch_cpus0.iq.fu_busy_rate          0.030445                       # FU busy rate (busy events/executed inst)
system.switch_cpus0.iq.fu_full::No_OpClass            0      0.00%      0.00% # attempts to use FU when none available
system.switch_cpus0.iq.fu_full::IntAlu       11325019     62.30%     62.30% # attempts to use FU when none available
system.switch_cpus0.iq.fu_full::IntMult             0      0.00%     62.30% # attempts to use FU when none available
system.switch_cpus0.iq.fu_full::IntDiv              0      0.00%     62.30% # attempts to use FU when none available
system.switch_cpus0.iq.fu_full::FloatAdd            0      0.00%     62.30% # attempts to use FU when none available
system.switch_cpus0.iq.fu_full::FloatCmp            0      0.00%     62.30% # attempts to use FU when none available
system.switch_cpus0.iq.fu_full::FloatCvt            0      0.00%     62.30% # attempts to use FU when none available
system.switch_cpus0.iq.fu_full::FloatMult            0      0.00%     62.30% # attempts to use FU when none available
system.switch_cpus0.iq.fu_full::FloatMultAcc            0      0.00%     62.30% # attempts to use FU when none available
system.switch_cpus0.iq.fu_full::FloatDiv            0      0.00%     62.30% # attempts to use FU when none available
system.switch_cpus0.iq.fu_full::FloatMisc            0      0.00%     62.30% # attempts to use FU when none available
system.switch_cpus0.iq.fu_full::FloatSqrt            0      0.00%     62.30% # attempts to use FU when none available
system.switch_cpus0.iq.fu_full::SimdAdd             0      0.00%     62.30% # attempts to use FU when none available
system.switch_cpus0.iq.fu_full::SimdAddAcc            0      0.00%     62.30% # attempts to use FU when none available
system.switch_cpus0.iq.fu_full::SimdAlu             0      0.00%     62.30% # attempts to use FU when none available
system.switch_cpus0.iq.fu_full::SimdCmp             0      0.00%     62.30% # attempts to use FU when none available
system.switch_cpus0.iq.fu_full::SimdCvt             0      0.00%     62.30% # attempts to use FU when none available
system.switch_cpus0.iq.fu_full::SimdMisc            0      0.00%     62.30% # attempts to use FU when none available
system.switch_cpus0.iq.fu_full::SimdMult            0      0.00%     62.30% # attempts to use FU when none available
system.switch_cpus0.iq.fu_full::SimdMultAcc            0      0.00%     62.30% # attempts to use FU when none available
system.switch_cpus0.iq.fu_full::SimdShift            0      0.00%     62.30% # attempts to use FU when none available
system.switch_cpus0.iq.fu_full::SimdShiftAcc            0      0.00%     62.30% # attempts to use FU when none available
system.switch_cpus0.iq.fu_full::SimdDiv             0      0.00%     62.30% # attempts to use FU when none available
system.switch_cpus0.iq.fu_full::SimdSqrt            0      0.00%     62.30% # attempts to use FU when none available
system.switch_cpus0.iq.fu_full::SimdFloatAdd            0      0.00%     62.30% # attempts to use FU when none available
system.switch_cpus0.iq.fu_full::SimdFloatAlu            0      0.00%     62.30% # attempts to use FU when none available
system.switch_cpus0.iq.fu_full::SimdFloatCmp            0      0.00%     62.30% # attempts to use FU when none available
system.switch_cpus0.iq.fu_full::SimdFloatCvt            0      0.00%     62.30% # attempts to use FU when none available
system.switch_cpus0.iq.fu_full::SimdFloatDiv            0      0.00%     62.30% # attempts to use FU when none available
system.switch_cpus0.iq.fu_full::SimdFloatMisc            0      0.00%     62.30% # attempts to use FU when none available
system.switch_cpus0.iq.fu_full::SimdFloatMult            0      0.00%     62.30% # attempts to use FU when none available
system.switch_cpus0.iq.fu_full::SimdFloatMultAcc            0      0.00%     62.30% # attempts to use FU when none available
system.switch_cpus0.iq.fu_full::SimdFloatSqrt            0      0.00%     62.30% # attempts to use FU when none available
system.switch_cpus0.iq.fu_full::SimdReduceAdd            0      0.00%     62.30% # attempts to use FU when none available
system.switch_cpus0.iq.fu_full::SimdReduceAlu            0      0.00%     62.30% # attempts to use FU when none available
system.switch_cpus0.iq.fu_full::SimdReduceCmp            0      0.00%     62.30% # attempts to use FU when none available
system.switch_cpus0.iq.fu_full::SimdFloatReduceAdd            0      0.00%     62.30% # attempts to use FU when none available
system.switch_cpus0.iq.fu_full::SimdFloatReduceCmp            0      0.00%     62.30% # attempts to use FU when none available
system.switch_cpus0.iq.fu_full::SimdAes             0      0.00%     62.30% # attempts to use FU when none available
system.switch_cpus0.iq.fu_full::SimdAesMix            0      0.00%     62.30% # attempts to use FU when none available
system.switch_cpus0.iq.fu_full::SimdSha1Hash            0      0.00%     62.30% # attempts to use FU when none available
system.switch_cpus0.iq.fu_full::SimdSha1Hash2            0      0.00%     62.30% # attempts to use FU when none available
system.switch_cpus0.iq.fu_full::SimdSha256Hash            0      0.00%     62.30% # attempts to use FU when none available
system.switch_cpus0.iq.fu_full::SimdSha256Hash2            0      0.00%     62.30% # attempts to use FU when none available
system.switch_cpus0.iq.fu_full::SimdShaSigma2            0      0.00%     62.30% # attempts to use FU when none available
system.switch_cpus0.iq.fu_full::SimdShaSigma3            0      0.00%     62.30% # attempts to use FU when none available
system.switch_cpus0.iq.fu_full::SimdPredAlu            0      0.00%     62.30% # attempts to use FU when none available
system.switch_cpus0.iq.fu_full::MemRead       5673247     31.21%     93.51% # attempts to use FU when none available
system.switch_cpus0.iq.fu_full::MemWrite      1174716      6.46%     99.97% # attempts to use FU when none available
system.switch_cpus0.iq.fu_full::FloatMemRead         2368      0.01%     99.98% # attempts to use FU when none available
system.switch_cpus0.iq.fu_full::FloatMemWrite         3192      0.02%    100.00% # attempts to use FU when none available
system.switch_cpus0.iq.fu_full::IprAccess            0      0.00%    100.00% # attempts to use FU when none available
system.switch_cpus0.iq.fu_full::InstPrefetch            0      0.00%    100.00% # attempts to use FU when none available
system.switch_cpus0.iq.int_alu_accesses     614049869                       # Number of integer alu accesses
system.switch_cpus0.iq.int_inst_queue_reads   1356426904                       # Number of integer instruction queue reads
system.switch_cpus0.iq.int_inst_queue_wakeup_accesses    584464263                       # Number of integer instruction queue wakeup accesses
system.switch_cpus0.iq.int_inst_queue_writes    798922311                       # Number of integer instruction queue writes
system.switch_cpus0.iq.iqInstsAdded         644093390                       # Number of instructions added to the IQ (excludes non-spec)
system.switch_cpus0.iq.iqInstsIssued        597101959                       # Number of instructions issued
system.switch_cpus0.iq.iqSquashedInstsExamined    154801822                       # Number of squashed instructions iterated over during squash; mainly for profiling
system.switch_cpus0.iq.iqSquashedInstsIssued      1747399                       # Number of squashed instructions issued
system.switch_cpus0.iq.iqSquashedOperandsExamined    202700156                       # Number of squashed operands that are examined and possibly removed from graph
system.switch_cpus0.iq.issued_per_cycle::samples    142328095                       # Number of insts issued each cycle
system.switch_cpus0.iq.issued_per_cycle::mean     4.195250                       # Number of insts issued each cycle
system.switch_cpus0.iq.issued_per_cycle::stdev     2.863915                       # Number of insts issued each cycle
system.switch_cpus0.iq.issued_per_cycle::underflows            0      0.00%      0.00% # Number of insts issued each cycle
system.switch_cpus0.iq.issued_per_cycle::0     32375287     22.75%     22.75% # Number of insts issued each cycle
system.switch_cpus0.iq.issued_per_cycle::1      4836936      3.40%     26.15% # Number of insts issued each cycle
system.switch_cpus0.iq.issued_per_cycle::2      5978375      4.20%     30.35% # Number of insts issued each cycle
system.switch_cpus0.iq.issued_per_cycle::3      9475981      6.66%     37.00% # Number of insts issued each cycle
system.switch_cpus0.iq.issued_per_cycle::4     13781018      9.68%     46.69% # Number of insts issued each cycle
system.switch_cpus0.iq.issued_per_cycle::5     15216887     10.69%     57.38% # Number of insts issued each cycle
system.switch_cpus0.iq.issued_per_cycle::6     22250330     15.63%     73.01% # Number of insts issued each cycle
system.switch_cpus0.iq.issued_per_cycle::7     20136405     14.15%     87.16% # Number of insts issued each cycle
system.switch_cpus0.iq.issued_per_cycle::8     18276876     12.84%    100.00% # Number of insts issued each cycle
system.switch_cpus0.iq.issued_per_cycle::overflows            0      0.00%    100.00% # Number of insts issued each cycle
system.switch_cpus0.iq.issued_per_cycle::min_value            0                       # Number of insts issued each cycle
system.switch_cpus0.iq.issued_per_cycle::max_value            8                       # Number of insts issued each cycle
system.switch_cpus0.iq.issued_per_cycle::total    142328095                       # Number of insts issued each cycle
system.switch_cpus0.iq.rate                  4.189016                       # Inst issue rate
system.switch_cpus0.iq.vec_alu_accesses             0                       # Number of vector alu accesses
system.switch_cpus0.iq.vec_inst_queue_reads            0                       # Number of vector instruction queue reads
system.switch_cpus0.iq.vec_inst_queue_wakeup_accesses            0                       # Number of vector instruction queue wakeup accesses
system.switch_cpus0.iq.vec_inst_queue_writes            0                       # Number of vector instruction queue writes
system.switch_cpus0.memDep0.conflictingLoads     28351752                       # Number of conflicting loads.
system.switch_cpus0.memDep0.conflictingStores     17078754                       # Number of conflicting stores.
system.switch_cpus0.memDep0.insertedLoads    138992226                       # Number of loads inserted to the mem dependence unit.
system.switch_cpus0.memDep0.insertedStores     55588231                       # Number of stores inserted to the mem dependence unit.
system.switch_cpus0.misc_regfile_reads      282414030                       # number of misc regfile reads
system.switch_cpus0.misc_regfile_writes             1                       # number of misc regfile writes
system.switch_cpus0.numCycles               142539921                       # number of cpu cycles simulated
system.switch_cpus0.numWorkItemsCompleted            0                       # number of work items this cpu completed
system.switch_cpus0.numWorkItemsStarted             0                       # number of work items this cpu started
system.switch_cpus0.timesIdled                   1173                       # Number of times that the entire CPU went into an idle state and unscheduled itself
system.switch_cpus1.cc_regfile_reads        236348056                       # number of cc regfile reads
system.switch_cpus1.cc_regfile_writes       244398582                       # number of cc regfile writes
system.switch_cpus1.committedInsts          249996434                       # Number of Instructions Simulated
system.switch_cpus1.committedOps            489291127                       # Number of Ops (including micro ops) Simulated
system.switch_cpus1.cpi                      0.570168                       # CPI: Cycles Per Instruction
system.switch_cpus1.cpi_total                0.570168                       # CPI: Total CPI of All Threads
system.switch_cpus1.fp_regfile_reads             6330                       # number of floating regfile reads
system.switch_cpus1.fp_regfile_writes            6395                       # number of floating regfile writes
system.switch_cpus1.idleCycles                 212576                       # Total number of cycles that the CPU has spent unscheduled due to idling
system.switch_cpus1.iew.branchMispredicts      3090244                       # Number of branch mispredicts detected at execute
system.switch_cpus1.iew.exec_branches        46284484                       # Number of branches executed
system.switch_cpus1.iew.exec_nop                    0                       # number of nop insts executed
system.switch_cpus1.iew.exec_rate            4.129016                       # Inst execution rate
system.switch_cpus1.iew.exec_refs           174193723                       # number of memory reference insts executed
system.switch_cpus1.iew.exec_stores          47230600                       # Number of stores executed
system.switch_cpus1.iew.exec_swp                    0                       # number of swp insts executed
system.switch_cpus1.iew.iewBlockCycles       18219937                       # Number of cycles IEW is blocking
system.switch_cpus1.iew.iewDispLoadInsts    138991802                       # Number of dispatched load instructions
system.switch_cpus1.iew.iewDispNonSpecInsts            0                       # Number of dispatched non-speculative instructions
system.switch_cpus1.iew.iewDispSquashedInsts        13332                       # Number of squashed instructions skipped by dispatch
system.switch_cpus1.iew.iewDispStoreInsts     55587650                       # Number of dispatched store instructions
system.switch_cpus1.iew.iewDispatchedInsts    644090488                       # Number of instructions dispatched to IQ
system.switch_cpus1.iew.iewExecLoadInsts    126963123                       # Number of load instructions executed
system.switch_cpus1.iew.iewExecSquashedInsts      8552811                       # Number of squashed instructions skipped in execute
system.switch_cpus1.iew.iewExecutedInsts    588549632                       # Number of executed instructions
system.switch_cpus1.iew.iewIQFullEvents            24                       # Number of times the IQ has become full, causing a stall
system.switch_cpus1.iew.iewIdleCycles               0                       # Number of cycles IEW is idle
system.switch_cpus1.iew.iewLSQFullEvents         3237                       # Number of times the LSQ has become full, causing a stall
system.switch_cpus1.iew.iewSquashCycles       2516795                       # Number of cycles IEW is squashing
system.switch_cpus1.iew.iewUnblockCycles         3270                       # Number of cycles IEW is unblocking
system.switch_cpus1.iew.memOrderViolationEvents        41462                       # Number of memory order violations
system.switch_cpus1.iew.predictedNotTakenIncorrect      1521956                       # Number of branches that were predicted not taken incorrectly
system.switch_cpus1.iew.predictedTakenIncorrect      1568288                       # Number of branches that were predicted taken incorrectly
system.switch_cpus1.iew.wb_consumers        658608776                       # num instructions consuming a value
system.switch_cpus1.iew.wb_count            584477349                       # cumulative count of insts written-back
system.switch_cpus1.iew.wb_fanout            0.668699                       # average fanout of values written-back
system.switch_cpus1.iew.wb_producers        440410852                       # num instructions producing a value
system.switch_cpus1.iew.wb_rate              4.100447                       # insts written-back per cycle
system.switch_cpus1.iew.wb_sent             587259047                       # cumulative count of insts sent to commit
system.switch_cpus1.int_regfile_reads       852596214                       # number of integer regfile reads
system.switch_cpus1.int_regfile_writes      494131130                       # number of integer regfile writes
system.switch_cpus1.ipc                      1.753870                       # IPC: Instructions Per Cycle
system.switch_cpus1.ipc_total                1.753870                       # IPC: Total IPC of All Threads
system.switch_cpus1.iq.FU_type_0::No_OpClass      1212471      0.20%      0.20% # Type of FU issued
system.switch_cpus1.iq.FU_type_0::IntAlu    413963854     69.33%     69.53% # Type of FU issued
system.switch_cpus1.iq.FU_type_0::IntMult      3578702      0.60%     70.13% # Type of FU issued
system.switch_cpus1.iq.FU_type_0::IntDiv        24111      0.00%     70.14% # Type of FU issued
system.switch_cpus1.iq.FU_type_0::FloatAdd            0      0.00%     70.14% # Type of FU issued
system.switch_cpus1.iq.FU_type_0::FloatCmp            0      0.00%     70.14% # Type of FU issued
system.switch_cpus1.iq.FU_type_0::FloatCvt            0      0.00%     70.14% # Type of FU issued
system.switch_cpus1.iq.FU_type_0::FloatMult            0      0.00%     70.14% # Type of FU issued
system.switch_cpus1.iq.FU_type_0::FloatMultAcc            0      0.00%     70.14% # Type of FU issued
system.switch_cpus1.iq.FU_type_0::FloatDiv            0      0.00%     70.14% # Type of FU issued
system.switch_cpus1.iq.FU_type_0::FloatMisc            0      0.00%     70.14% # Type of FU issued
system.switch_cpus1.iq.FU_type_0::FloatSqrt            0      0.00%     70.14% # Type of FU issued
system.switch_cpus1.iq.FU_type_0::SimdAdd            0      0.00%     70.14% # Type of FU issued
system.switch_cpus1.iq.FU_type_0::SimdAddAcc            0      0.00%     70.14% # Type of FU issued
system.switch_cpus1.iq.FU_type_0::SimdAlu            0      0.00%     70.14% # Type of FU issued
system.switch_cpus1.iq.FU_type_0::SimdCmp            0      0.00%     70.14% # Type of FU issued
system.switch_cpus1.iq.FU_type_0::SimdCvt            0      0.00%     70.14% # Type of FU issued
system.switch_cpus1.iq.FU_type_0::SimdMisc            0      0.00%     70.14% # Type of FU issued
system.switch_cpus1.iq.FU_type_0::SimdMult            0      0.00%     70.14% # Type of FU issued
system.switch_cpus1.iq.FU_type_0::SimdMultAcc            0      0.00%     70.14% # Type of FU issued
system.switch_cpus1.iq.FU_type_0::SimdShift            0      0.00%     70.14% # Type of FU issued
system.switch_cpus1.iq.FU_type_0::SimdShiftAcc            0      0.00%     70.14% # Type of FU issued
system.switch_cpus1.iq.FU_type_0::SimdDiv            0      0.00%     70.14% # Type of FU issued
system.switch_cpus1.iq.FU_type_0::SimdSqrt            0      0.00%     70.14% # Type of FU issued
system.switch_cpus1.iq.FU_type_0::SimdFloatAdd            0      0.00%     70.14% # Type of FU issued
system.switch_cpus1.iq.FU_type_0::SimdFloatAlu            0      0.00%     70.14% # Type of FU issued
system.switch_cpus1.iq.FU_type_0::SimdFloatCmp            0      0.00%     70.14% # Type of FU issued
system.switch_cpus1.iq.FU_type_0::SimdFloatCvt            0      0.00%     70.14% # Type of FU issued
system.switch_cpus1.iq.FU_type_0::SimdFloatDiv            0      0.00%     70.14% # Type of FU issued
system.switch_cpus1.iq.FU_type_0::SimdFloatMisc            0      0.00%     70.14% # Type of FU issued
system.switch_cpus1.iq.FU_type_0::SimdFloatMult            0      0.00%     70.14% # Type of FU issued
system.switch_cpus1.iq.FU_type_0::SimdFloatMultAcc            0      0.00%     70.14% # Type of FU issued
system.switch_cpus1.iq.FU_type_0::SimdFloatSqrt            0      0.00%     70.14% # Type of FU issued
system.switch_cpus1.iq.FU_type_0::SimdReduceAdd            0      0.00%     70.14% # Type of FU issued
system.switch_cpus1.iq.FU_type_0::SimdReduceAlu            0      0.00%     70.14% # Type of FU issued
system.switch_cpus1.iq.FU_type_0::SimdReduceCmp            0      0.00%     70.14% # Type of FU issued
system.switch_cpus1.iq.FU_type_0::SimdFloatReduceAdd            0      0.00%     70.14% # Type of FU issued
system.switch_cpus1.iq.FU_type_0::SimdFloatReduceCmp            0      0.00%     70.14% # Type of FU issued
system.switch_cpus1.iq.FU_type_0::SimdAes            0      0.00%     70.14% # Type of FU issued
system.switch_cpus1.iq.FU_type_0::SimdAesMix            0      0.00%     70.14% # Type of FU issued
system.switch_cpus1.iq.FU_type_0::SimdSha1Hash            0      0.00%     70.14% # Type of FU issued
[...]
system.switch_cpus3.commit.numCommittedDist::stdev     3.228871                       # Number of insts commited each cycle
system.switch_cpus3.commit.numCommittedDist::underflows            0      0.00%      0.00% # Number of insts commited each cycle
system.switch_cpus3.commit.numCommittedDist::0     24250461     19.94%     19.94% # Number of insts commited each cycle
system.switch_cpus3.commit.numCommittedDist::1     18585749     15.29%     35.23% # Number of insts commited each cycle
system.switch_cpus3.commit.numCommittedDist::2      7137119      5.87%     41.10% # Number of insts commited each cycle
system.switch_cpus3.commit.numCommittedDist::3     12688169     10.43%     51.53% # Number of insts commited each cycle
system.switch_cpus3.commit.numCommittedDist::4      3828762      3.15%     54.68% # Number of insts commited each cycle
system.switch_cpus3.commit.numCommittedDist::5      7037332      5.79%     60.47% # Number of insts commited each cycle
system.switch_cpus3.commit.numCommittedDist::6      5889687      4.84%     65.31% # Number of insts commited each cycle
system.switch_cpus3.commit.numCommittedDist::7      4882385      4.02%     69.33% # Number of insts commited each cycle
system.switch_cpus3.commit.numCommittedDist::8     37294123     30.67%    100.00% # Number of insts commited each cycle
system.switch_cpus3.commit.numCommittedDist::overflows            0      0.00%    100.00% # Number of insts commited each cycle
system.switch_cpus3.commit.numCommittedDist::min_value            0                       # Number of insts commited each cycle
system.switch_cpus3.commit.numCommittedDist::max_value            8                       # Number of insts commited each cycle
system.switch_cpus3.commit.numCommittedDist::total    121593787                       # Number of insts commited each cycle
system.switch_cpus3.commit.instsCommitted    249997991                       # Number of instructions committed
system.switch_cpus3.commit.opsCommitted     489294003                       # Number of ops (including micro ops) committed
system.switch_cpus3.commit.memRefs          144800144                       # Number of memory references committed
system.switch_cpus3.commit.loads            101175875                       # Number of loads committed
system.switch_cpus3.commit.amos                     0                       # Number of atomic instructions committed
system.switch_cpus3.commit.membars                  0                       # Number of memory barriers committed
system.switch_cpus3.commit.branches          42318494                       # Number of branches committed
system.switch_cpus3.commit.vector                   0                       # Number of committed Vector instructions.
system.switch_cpus3.commit.floating             12358                       # Number of committed floating point instructions.
system.switch_cpus3.commit.integer          486633620                       # Number of committed integer instructions.
system.switch_cpus3.commit.functionCalls        81394                       # Number of function calls committed.
system.switch_cpus3.commit.committedInstType_0::No_OpClass      1018816      0.21%      0.21% # Class of committed instruction
system.switch_cpus3.commit.committedInstType_0::IntAlu    339906298     69.47%     69.68% # Class of committed instruction
system.switch_cpus3.commit.committedInstType_0::IntMult      3544665      0.72%     70.40% # Class of committed instruction
system.switch_cpus3.commit.committedInstType_0::IntDiv        24080      0.00%     70.41% # Class of committed instruction
system.switch_cpus3.commit.committedInstType_0::FloatAdd            0      0.00%     70.41% # Class of committed instruction
system.switch_cpus3.commit.committedInstType_0::FloatCmp            0      0.00%     70.41% # Class of committed instruction
system.switch_cpus3.commit.committedInstType_0::FloatCvt            0      0.00%     70.41% # Class of committed instruction
system.switch_cpus3.commit.committedInstType_0::FloatMult            0      0.00%     70.41% # Class of committed instruction
system.switch_cpus3.commit.committedInstType_0::FloatMultAcc            0      0.00%     70.41% # Class of committed instruction
system.switch_cpus3.commit.committedInstType_0::FloatDiv            0      0.00%     70.41% # Class of committed instruction
system.switch_cpus3.commit.committedInstType_0::FloatMisc            0      0.00%     70.41% # Class of committed instruction
system.switch_cpus3.commit.committedInstType_0::FloatSqrt            0      0.00%     70.41% # Class of committed instruction
system.switch_cpus3.commit.committedInstType_0::SimdAdd            0      0.00%     70.41% # Class of committed instruction
system.switch_cpus3.commit.committedInstType_0::SimdAddAcc            0      0.00%     70.41% # Class of committed instruction
system.switch_cpus3.commit.committedInstType_0::SimdAlu            0      0.00%     70.41% # Class of committed instruction
system.switch_cpus3.commit.committedInstType_0::SimdCmp            0      0.00%     70.41% # Class of committed instruction
system.switch_cpus3.commit.committedInstType_0::SimdCvt            0      0.00%     70.41% # Class of committed instruction
system.switch_cpus3.commit.committedInstType_0::SimdMisc            0      0.00%     70.41% # Class of committed instruction
system.switch_cpus3.commit.committedInstType_0::SimdMult            0      0.00%     70.41% # Class of committed instruction
system.switch_cpus3.commit.committedInstType_0::SimdMultAcc            0      0.00%     70.41% # Class of committed instruction
system.switch_cpus3.commit.committedInstType_0::SimdShift            0      0.00%     70.41% # Class of committed instruction
system.switch_cpus3.commit.committedInstType_0::SimdShiftAcc            0      0.00%     70.41% # Class of committed instruction
system.switch_cpus3.commit.committedInstType_0::SimdDiv            0      0.00%     70.41% # Class of committed instruction
system.switch_cpus3.commit.committedInstType_0::SimdSqrt            0      0.00%     70.41% # Class of committed instruction
system.switch_cpus3.commit.committedInstType_0::SimdFloatAdd            0      0.00%     70.41% # Class of committed instruction
system.switch_cpus3.commit.committedInstType_0::SimdFloatAlu            0      0.00%     70.41% # Class of committed instruction
system.switch_cpus3.commit.committedInstType_0::SimdFloatCmp            0      0.00%     70.41% # Class of committed instruction
system.switch_cpus3.commit.committedInstType_0::SimdFloatCvt            0      0.00%     70.41% # Class of committed instruction
system.switch_cpus3.commit.committedInstType_0::SimdFloatDiv            0      0.00%     70.41% # Class of committed instruction
system.switch_cpus3.commit.committedInstType_0::SimdFloatMisc            0      0.00%     70.41% # Class of committed instruction
system.switch_cpus3.commit.committedInstType_0::SimdFloatMult            0      0.00%     70.41% # Class of committed instruction
system.switch_cpus3.commit.committedInstType_0::SimdFloatMultAcc            0      0.00%     70.41% # Class of committed instruction
system.switch_cpus3.commit.committedInstType_0::SimdFloatSqrt            0      0.00%     70.41% # Class of committed instruction
system.switch_cpus3.commit.committedInstType_0::SimdReduceAdd            0      0.00%     70.41% # Class of committed instruction
system.switch_cpus3.commit.committedInstType_0::SimdReduceAlu            0      0.00%     70.41% # Class of committed instruction
system.switch_cpus3.commit.committedInstType_0::SimdReduceCmp            0      0.00%     70.41% # Class of committed instruction
system.switch_cpus3.commit.committedInstType_0::SimdFloatReduceAdd            0      0.00%     70.41% # Class of committed instruction
system.switch_cpus3.commit.committedInstType_0::SimdFloatReduceCmp            0      0.00%     70.41% # Class of committed instruction
system.switch_cpus3.commit.committedInstType_0::SimdAes            0      0.00%     70.41% # Class of committed instruction
system.switch_cpus3.commit.committedInstType_0::SimdAesMix            0      0.00%     70.41% # Class of committed instruction
system.switch_cpus3.commit.committedInstType_0::SimdSha1Hash            0      0.00%     70.41% # Class of committed instruction
system.switch_cpus3.commit.committedInstType_0::SimdSha1Hash2            0      0.00%     70.41% # Class of committed instruction
system.switch_cpus3.commit.committedInstType_0::SimdSha256Hash            0      0.00%     70.41% # Class of committed instruction
system.switch_cpus3.commit.committedInstType_0::SimdSha256Hash2            0      0.00%     70.41% # Class of committed instruction
system.switch_cpus3.commit.committedInstType_0::SimdShaSigma2            0      0.00%     70.41% # Class of committed instruction
system.switch_cpus3.commit.committedInstType_0::SimdShaSigma3            0      0.00%     70.41% # Class of committed instruction
system.switch_cpus3.commit.committedInstType_0::SimdPredAlu            0      0.00%     70.41% # Class of committed instruction
system.switch_cpus3.commit.committedInstType_0::MemRead    101169711     20.68%     91.08% # Class of committed instruction
system.switch_cpus3.commit.committedInstType_0::MemWrite     43618075      8.91%    100.00% # Class of committed instruction
system.switch_cpus3.commit.committedInstType_0::FloatMemRead         6164      0.00%    100.00% # Class of committed instruction
system.switch_cpus3.commit.committedInstType_0::FloatMemWrite         6194      0.00%    100.00% # Class of committed instruction
system.switch_cpus3.commit.committedInstType_0::IprAccess            0      0.00%    100.00% # Class of committed instruction
system.switch_cpus3.commit.committedInstType_0::InstPrefetch            0      0.00%    100.00% # Class of committed instruction
system.switch_cpus3.commit.committedInstType_0::total    489294003                       # Class of committed instruction
system.switch_cpus3.commit.commitEligibleSamples     37294123                       # number cycles where commit BW limit reached
system.switch_cpus3.decode.idleCycles        10670259                       # Number of cycles decode is idle
system.switch_cpus3.decode.blockedCycles     28587827                       # Number of cycles decode is blocked
system.switch_cpus3.decode.runCycles         90617144                       # Number of cycles decode is running
system.switch_cpus3.decode.unblockCycles      9935299                       # Number of cycles decode is unblocking
system.switch_cpus3.decode.squashCycles       2516747                       # Number of cycles decode is squashing
system.switch_cpus3.decode.branchResolved     33873668                       # Number of times decode resolved a  branch
system.switch_cpus3.decode.branchMispred        12220                       # Number of times decode detected a branch misprediction
system.switch_cpus3.decode.decodedInsts     686921043                       # Number of instructions handled by decode
system.switch_cpus3.decode.squashedInsts        53301                       # Number of squashed instructions handled by decode
system.switch_cpus3.dtb.rdAccesses          126961858                       # TLB accesses on read requests
system.switch_cpus3.dtb.wrAccesses           47230902                       # TLB accesses on write requests
system.switch_cpus3.dtb.rdMisses                   29                       # TLB misses on read requests
system.switch_cpus3.dtb.wrMisses                    4                       # TLB misses on write requests
system.switch_cpus3.dtb.walker.power_state.pwrStateResidencyTicks::UNDEFINED 19790310859020                       # Cumulative time (in ticks) in various power states
system.switch_cpus3.fetch.icacheStallCycles      2314193                       # Number of cycles fetch is stalled on an Icache miss
system.switch_cpus3.fetch.insts             369058300                       # Number of instructions fetch has processed
system.switch_cpus3.fetch.branches           62407754                       # Number of branches that fetch encountered
system.switch_cpus3.fetch.predictedBranches     35715375                       # Number of branches that fetch has predicted taken
system.switch_cpus3.fetch.cycles            137484403                       # Number of cycles fetch has run and was not squashing or blocked
system.switch_cpus3.fetch.squashCycles        5057366                       # Number of cycles fetch has spent squashing
system.switch_cpus3.fetch.cacheLines         53659704                       # Number of cache lines fetched
system.switch_cpus3.fetch.icacheSquashes         2857                       # Number of outstanding Icache misses that were squashed
system.switch_cpus3.fetch.nisnDist::samples    142327279                       # Number of instructions fetched each cycle (Total)
system.switch_cpus3.fetch.nisnDist::mean     5.073315                       # Number of instructions fetched each cycle (Total)
system.switch_cpus3.fetch.nisnDist::stdev     3.137817                       # Number of instructions fetched each cycle (Total)
system.switch_cpus3.fetch.nisnDist::underflows            0      0.00%      0.00% # Number of instructions fetched each cycle (Total)
system.switch_cpus3.fetch.nisnDist::0        21999067     15.46%     15.46% # Number of instructions fetched each cycle (Total)
system.switch_cpus3.fetch.nisnDist::1        10286320      7.23%     22.68% # Number of instructions fetched each cycle (Total)
system.switch_cpus3.fetch.nisnDist::2         4711867      3.31%     25.99% # Number of instructions fetched each cycle (Total)
system.switch_cpus3.fetch.nisnDist::3        12622009      8.87%     34.86% # Number of instructions fetched each cycle (Total)
system.switch_cpus3.fetch.nisnDist::4         6487276      4.56%     39.42% # Number of instructions fetched each cycle (Total)
system.switch_cpus3.fetch.nisnDist::5         8877763      6.24%     45.66% # Number of instructions fetched each cycle (Total)
system.switch_cpus3.fetch.nisnDist::6         7505532      5.27%     50.93% # Number of instructions fetched each cycle (Total)
system.switch_cpus3.fetch.nisnDist::7         9575573      6.73%     57.66% # Number of instructions fetched each cycle (Total)
system.switch_cpus3.fetch.nisnDist::8        60261872     42.34%    100.00% # Number of instructions fetched each cycle (Total)
system.switch_cpus3.fetch.nisnDist::overflows            0      0.00%    100.00% # Number of instructions fetched each cycle (Total)
system.switch_cpus3.fetch.nisnDist::min_value            0                       # Number of instructions fetched each cycle (Total)
system.switch_cpus3.fetch.nisnDist::max_value            8                       # Number of instructions fetched each cycle (Total)
system.switch_cpus3.fetch.nisnDist::total    142327279                       # Number of instructions fetched each cycle (Total)
system.switch_cpus3.fetch.branchRate         0.437826                       # Number of branch fetches per cycle
system.switch_cpus3.fetch.rate               2.589157                       # Number of inst fetches per cycle
system.switch_cpus3.itb.rdAccesses                  0                       # TLB accesses on read requests
system.switch_cpus3.itb.wrAccesses           53659704                       # TLB accesses on write requests
system.switch_cpus3.itb.rdMisses                    0                       # TLB misses on read requests
system.switch_cpus3.itb.wrMisses                   32                       # TLB misses on write requests
system.switch_cpus3.itb.walker.power_state.pwrStateResidencyTicks::UNDEFINED 19790310859020                       # Cumulative time (in ticks) in various power states
system.switch_cpus3.lsq0.forwLoads           14340851                       # Number of loads that had data forwarded from stores
system.switch_cpus3.lsq0.squashedLoads       37816545                       # Number of loads squashed
system.switch_cpus3.lsq0.ignoredResponses         4127                       # Number of memory responses ignored because the instruction is squashed
system.switch_cpus3.lsq0.memOrderViolation        41497                       # Number of memory ordering violations
system.switch_cpus3.lsq0.squashedStores      11964075                       # Number of stores squashed
system.switch_cpus3.lsq0.rescheduledLoads           14                       # Number of loads that were rescheduled
system.switch_cpus3.lsq0.blockedByCache             1                       # Number of times an access to memory failed due to the cache being blocked
system.switch_cpus3.power_state.pwrStateResidencyTicks::OFF  47465804016                       # Cumulative time (in ticks) in various power states
system.switch_cpus3.rename.squashCycles       2516747                       # Number of cycles rename is squashing
system.switch_cpus3.rename.idleCycles        15399450                       # Number of cycles rename is idle
system.switch_cpus3.rename.blockCycles       18201824                       # Number of cycles rename is blocking
system.switch_cpus3.rename.serializeStallCycles            0                       # count of cycles rename stalledfor serializing inst
system.switch_cpus3.rename.runCycles         95553721                       # Number of cycles rename is running
system.switch_cpus3.rename.unblockCycles     10655529                       # Number of cycles rename is unblocking
system.switch_cpus3.rename.renamedInsts     671103295                       # Number of instructions processed by rename
system.switch_cpus3.rename.ROBFullEvents        13925                       # Number of times rename has blocked due to ROB full
system.switch_cpus3.rename.IQFullEvents       1420316                       # Number of times rename has blocked due to IQ full
system.switch_cpus3.rename.LQFullEvents       7510598                       # Number of times rename has blocked due to LQ full
system.switch_cpus3.rename.SQFullEvents         35218                       # Number of times rename has blocked due to SQ full
system.switch_cpus3.rename.renamedOperands    847428028                       # Number of destination operands rename has renamed
system.switch_cpus3.rename.lookups         1630581359                       # Number of register rename lookups that rename has made
system.switch_cpus3.rename.intLookups      1001203718                       # Number of integer rename lookups
system.switch_cpus3.rename.fpLookups             6530                       # Number of floating rename lookups
system.switch_cpus3.rename.committedMaps    613585666                       # Number of HB maps that are committed
system.switch_cpus3.rename.undoneMaps       233842274                       # Number of HB maps that are undone due to squashing
system.switch_cpus3.rename.serializing              0                       # count of serializing insts renamed
system.switch_cpus3.rename.tempSerializing            0                       # count of temporary serializing insts renamed
system.switch_cpus3.rename.skidInsts         33639771                       # count of insts added to the skid buffer
system.switch_cpus3.rob.reads               728394317                       # The number of ROB reads
system.switch_cpus3.rob.writes             1308968065                       # The number of ROB writes
system.switch_cpus3.thread0.numInsts        249997991                       # Number of Instructions committed
system.switch_cpus3.thread0.numOps          489294003                       # Number of Ops committed
system.switch_cpus3.thread0.numMemRefs              0                       # Number of Memory References
system.voltage_domain.voltage                       1                       # Voltage in Volts

---------- End Simulation Statistics   ----------
