Command line:
./runscript_pride.sh deepsjeng RFM1.BR2.4C 4 2017 --rh_defense --rh_mitigation=RFM --rh_rfm_per_trefi=1 --rh_rfm_blast_radius=2 --rh_rfm_maxacts_per_trefi=79
Global frequency set at 1000000000000 ticks per second
RFM details - rfm_act_threshold: 79, blast_radius: 2, delay_per_rfm: 175000 ps. sample_rate: 0.012500
RH Defense config: RFM, Bus Delay: 0, rfms_per_trefi: 1, rfm_act_threshold: 79, blast_radius: 2,rfm_delay_per_act: 45000 ps.
DRAM config: RowsPerBank: 65536, BanksPerRank: 32, RanksPerChannel: 1
warn: Sockets disabled, not accepting gdb connections
warn: CoherentXBar system.cpu0.mmucache.mmubus has no snooping ports attached!
warn: CoherentXBar system.cpu1.mmucache.mmubus has no snooping ports attached!
warn: CoherentXBar system.cpu2.mmucache.mmubus has no snooping ports attached!
warn: CoherentXBar system.cpu3.mmucache.mmubus has no snooping ports attached!
warn: Checkpoints for file descriptors currently do not work.
warn: Checkpoints for file descriptors currently do not work.
warn: Checkpoints for file descriptors currently do not work.
warn: Checkpoints for file descriptors currently do not work.
gem5 Simulator System.  http://gem5.org
gem5 is copyrighted software; use the --copyright option for details.

gem5 version 20.1.0.5
gem5 compiled Jul 12 2024 12:42:38
gem5 started Aug  1 2024 16:47:12
gem5 executing on a07dda8b130c, pid 249760
command line: /home/user/PrIDE/performance/gem5/build/X86/gem5.opt --outdir=/home/user/PrIDE/performance/gem5/stats/pride_multiprogram_16GBmem_250Mn.SPEC2017.C4/RFM1.BR2.4C/deepsjeng /home/user/PrIDE/performance/gem5/configs/example/se_rq_spec_config_multicore.py --redirects /lib64=/home/utils/gcc-6.2.0/lib64 --benchmark=deepsjeng --benchmark_stdout=/home/user/PrIDE/performance/gem5/stats/pride_multiprogram_16GBmem_250Mn.SPEC2017.C4/RFM1.BR2.4C/deepsjeng/deepsjeng.out --benchmark_stderr=/home/user/PrIDE/performance/gem5/stats/pride_multiprogram_16GBmem_250Mn.SPEC2017.C4/RFM1.BR2.4C/deepsjeng/deepsjeng.err --spec-version=2017 --rh_defense --rh_mitigation=RFM --rh_rfm_per_trefi=1 --rh_rfm_blast_radius=2 --rh_rfm_maxacts_per_trefi=79 --num-cpus=4 --mem-size=16GB --mem-type=DDR5_2400_32x4 --mem-ranks=1 --mem-channels=1 --checkpoint-dir=/home/user/PrIDE/performance/gem5/cpts-DDR5/multiprogram_16GBmem_25Bn.SPEC2017.C4/deepsjeng-1-ref-x86 --checkpoint-restore=25000000000 --at-instruction --cpu-type DerivO3CPU --caches --l2cache --l1d_size=32kB --l1i_size=32kB --l2_size=256kB --l3_size=4MB --l1d_assoc=8 --l1i_assoc=8 --l2_assoc=16 --l3_assoc=16 --cpu-clock=3GHz --sys-clock=3GHz --maxinsts=250000000 --prog-interval=300Hz

info: Standard input is not a terminal, disabling listeners.
Benchmark- 0   deepsjeng
Selected benchmark
--> deepsjeng
CMD: ['/opt/spec2017/benchspec/CPU/531.deepsjeng_r/run/run_base_refrate_gem5_se-m64.0000/deepsjeng_r_base.gem5_se-m64', '/opt/spec2017/benchspec/CPU/531.deepsjeng_r/run/run_base_refrate_gem5_se-m64.0000/ref.txt']
CWD: /opt/spec2017/benchspec/CPU/531.deepsjeng_r/run/run_base_refrate_gem5_se-m64.0000/
Process stdout file: /home/user/PrIDE/performance/gem5/stats/pride_multiprogram_16GBmem_250Mn.SPEC2017.C4/RFM1.BR2.4C/deepsjeng/deepsjeng.out_0
Process stderr file: /home/user/PrIDE/performance/gem5/stats/pride_multiprogram_16GBmem_250Mn.SPEC2017.C4/RFM1.BR2.4C/deepsjeng/deepsjeng.err_0
Benchmark- 1   deepsjeng
Selected benchmark
--> deepsjeng
CMD: ['/opt/spec2017/benchspec/CPU/531.deepsjeng_r/run/run_base_refrate_gem5_se-m64.0000/deepsjeng_r_base.gem5_se-m64', '/opt/spec2017/benchspec/CPU/531.deepsjeng_r/run/run_base_refrate_gem5_se-m64.0000/ref.txt']
CWD: /opt/spec2017/benchspec/CPU/531.deepsjeng_r/run/run_base_refrate_gem5_se-m64.0000/
Process stdout file: /home/user/PrIDE/performance/gem5/stats/pride_multiprogram_16GBmem_250Mn.SPEC2017.C4/RFM1.BR2.4C/deepsjeng/deepsjeng.out_1
Process stderr file: /home/user/PrIDE/performance/gem5/stats/pride_multiprogram_16GBmem_250Mn.SPEC2017.C4/RFM1.BR2.4C/deepsjeng/deepsjeng.err_1
Benchmark- 2   deepsjeng
Selected benchmark
--> deepsjeng
CMD: ['/opt/spec2017/benchspec/CPU/531.deepsjeng_r/run/run_base_refrate_gem5_se-m64.0000/deepsjeng_r_base.gem5_se-m64', '/opt/spec2017/benchspec/CPU/531.deepsjeng_r/run/run_base_refrate_gem5_se-m64.0000/ref.txt']
CWD: /opt/spec2017/benchspec/CPU/531.deepsjeng_r/run/run_base_refrate_gem5_se-m64.0000/
Process stdout file: /home/user/PrIDE/performance/gem5/stats/pride_multiprogram_16GBmem_250Mn.SPEC2017.C4/RFM1.BR2.4C/deepsjeng/deepsjeng.out_2
Process stderr file: /home/user/PrIDE/performance/gem5/stats/pride_multiprogram_16GBmem_250Mn.SPEC2017.C4/RFM1.BR2.4C/deepsjeng/deepsjeng.err_2
Benchmark- 3   deepsjeng
Selected benchmark
--> deepsjeng
CMD: ['/opt/spec2017/benchspec/CPU/531.deepsjeng_r/run/run_base_refrate_gem5_se-m64.0000/deepsjeng_r_base.gem5_se-m64', '/opt/spec2017/benchspec/CPU/531.deepsjeng_r/run/run_base_refrate_gem5_se-m64.0000/ref.txt']
CWD: /opt/spec2017/benchspec/CPU/531.deepsjeng_r/run/run_base_refrate_gem5_se-m64.0000/
Process stdout file: /home/user/PrIDE/performance/gem5/stats/pride_multiprogram_16GBmem_250Mn.SPEC2017.C4/RFM1.BR2.4C/deepsjeng/deepsjeng.out_3
Process stderr file: /home/user/PrIDE/performance/gem5/stats/pride_multiprogram_16GBmem_250Mn.SPEC2017.C4/RFM1.BR2.4C/deepsjeng/deepsjeng.err_3
Workload-0: 
['/opt/spec2017/benchspec/CPU/531.deepsjeng_r/run/run_base_refrate_gem5_se-m64.0000/deepsjeng_r_base.gem5_se-m64', '/opt/spec2017/benchspec/CPU/531.deepsjeng_r/run/run_base_refrate_gem5_se-m64.0000/ref.txt']
Workload-1: 
['/opt/spec2017/benchspec/CPU/531.deepsjeng_r/run/run_base_refrate_gem5_se-m64.0000/deepsjeng_r_base.gem5_se-m64', '/opt/spec2017/benchspec/CPU/531.deepsjeng_r/run/run_base_refrate_gem5_se-m64.0000/ref.txt']
Workload-2: 
['/opt/spec2017/benchspec/CPU/531.deepsjeng_r/run/run_base_refrate_gem5_se-m64.0000/deepsjeng_r_base.gem5_se-m64', '/opt/spec2017/benchspec/CPU/531.deepsjeng_r/run/run_base_refrate_gem5_se-m64.0000/ref.txt']
Workload-3: 
['/opt/spec2017/benchspec/CPU/531.deepsjeng_r/run/run_base_refrate_gem5_se-m64.0000/deepsjeng_r_base.gem5_se-m64', '/opt/spec2017/benchspec/CPU/531.deepsjeng_r/run/run_base_refrate_gem5_se-m64.0000/ref.txt']
defense_enable:  True  detector:  MG  mitigation:  RFM  threshold:  800
mg_entries:  1700
rfm_maxacts_per_trefi:  79 rfm_per_trefi:  1 rfm_blast_radius:  2
Switch at curTick count:10000
warn: membus.master is deprecated. `master` is now called `mem_side_ports`
warn: No dot file generated. Please install pydot to generate the dot file and pdf.
info: Entering event queue @ 16546382661060.  Starting simulation...
info: Entering event queue @ 16546382671060.  Starting simulation...
warn: PowerState: Already in the requested power state, request ignored
Switched CPUS @ tick 16546382671060
switching cpus
**** REAL SIMULATION ****
info: Entering event queue @ 16546382671716.  Starting simulation...
16549715994393: Event_285: system.switch_cpus3 progress event, total committed:22295522, progress insts committed: 22295522, IPC: 02.22732
16549715994393: Event_284: system.switch_cpus2 progress event, total committed:22294789, progress insts committed: 22294789, IPC: 02.22725
16549715994393: Event_283: system.switch_cpus1 progress event, total committed:22294805, progress insts committed: 22294805, IPC: 02.22725
16549715994393: Event_282: system.switch_cpus0 progress event, total committed:22294793, progress insts committed: 22294793, IPC: 02.22725
16553049327726: Event_282: system.switch_cpus0 progress event, total committed:44822016, progress insts committed: 22527223, IPC: 02.25047
16553049327726: Event_283: system.switch_cpus1 progress event, total committed:44822005, progress insts committed: 22527200, IPC: 02.25047
16553049327726: Event_284: system.switch_cpus2 progress event, total committed:44821990, progress insts committed: 22527201, IPC: 02.25047
16553049327726: Event_285: system.switch_cpus3 progress event, total committed:44822096, progress insts committed: 22526574, IPC: 002.2504
16556382661059: Event_285: system.switch_cpus3 progress event, total committed:67179537, progress insts committed: 22357441, IPC: 02.23351
16556382661059: Event_284: system.switch_cpus2 progress event, total committed:67179511, progress insts committed: 22357521, IPC: 02.23352
16556382661059: Event_283: system.switch_cpus1 progress event, total committed:67187998, progress insts committed: 22365993, IPC: 02.23436
16556382661059: Event_282: system.switch_cpus0 progress event, total committed:67188080, progress insts committed: 22366064, IPC: 02.23437
16559715994392: Event_282: system.switch_cpus0 progress event, total committed:89588907, progress insts committed: 22400827, IPC: 02.23784
16559715994392: Event_283: system.switch_cpus1 progress event, total committed:89588952, progress insts committed: 22400954, IPC: 02.23786
16559715994392: Event_284: system.switch_cpus2 progress event, total committed:89561809, progress insts committed: 22382298, IPC: 02.23599
16559715994392: Event_285: system.switch_cpus3 progress event, total committed:89561827, progress insts committed: 22382290, IPC: 02.23599
16563049327725: Event_285: system.switch_cpus3 progress event, total committed:111241009, progress insts committed: 21679182, IPC: 02.16575
16563049327725: Event_284: system.switch_cpus2 progress event, total committed:111241009, progress insts committed: 21679200, IPC: 02.16575
16563049327725: Event_283: system.switch_cpus1 progress event, total committed:111241009, progress insts committed: 21652057, IPC: 02.16304
16563049327725: Event_282: system.switch_cpus0 progress event, total committed:111241009, progress insts committed: 21652102, IPC: 02.16304
16566382661058: Event_282: system.switch_cpus0 progress event, total committed:132585012, progress insts committed: 21344003, IPC: 02.13227
16566382661058: Event_283: system.switch_cpus1 progress event, total committed:132585039, progress insts committed: 21344030, IPC: 02.13227
16566382661058: Event_284: system.switch_cpus2 progress event, total committed:132585036, progress insts committed: 21344027, IPC: 02.13227
16566382661058: Event_285: system.switch_cpus3 progress event, total committed:132584997, progress insts committed: 21343988, IPC: 02.13226
16569715994391: Event_285: system.switch_cpus3 progress event, total committed:154284068, progress insts committed: 21699071, IPC: 02.16774
16569715994391: Event_284: system.switch_cpus2 progress event, total committed:154284068, progress insts committed: 21699032, IPC: 02.16773
16569715994391: Event_283: system.switch_cpus1 progress event, total committed:154246827, progress insts committed: 21661788, IPC: 02.16401
16569715994391: Event_282: system.switch_cpus0 progress event, total committed:154246842, progress insts committed: 21661830, IPC: 02.16402
16573049327724: Event_282: system.switch_cpus0 progress event, total committed:176041694, progress insts committed: 21794852, IPC: 02.17731
16573049327724: Event_283: system.switch_cpus1 progress event, total committed:176041734, progress insts committed: 21794907, IPC: 02.17731
16573049327724: Event_284: system.switch_cpus2 progress event, total committed:176085502, progress insts committed: 21801434, IPC: 02.17796
16573049327724: Event_285: system.switch_cpus3 progress event, total committed:176088540, progress insts committed: 21804472, IPC: 02.17827
16576382661057: Event_285: system.switch_cpus3 progress event, total committed:197531934, progress insts committed: 21443394, IPC: 002.1422
16576382661057: Event_284: system.switch_cpus2 progress event, total committed:197531871, progress insts committed: 21446369, IPC: 02.14249
16576382661057: Event_283: system.switch_cpus1 progress event, total committed:197523928, progress insts committed: 21482194, IPC: 02.14607
16576382661057: Event_282: system.switch_cpus0 progress event, total committed:197523839, progress insts committed: 21482145, IPC: 02.14607
16579715994390: Event_282: system.switch_cpus0 progress event, total committed:219443179, progress insts committed: 21919340, IPC: 02.18974
16579715994390: Event_283: system.switch_cpus1 progress event, total committed:219443112, progress insts committed: 21919184, IPC: 02.18973
16579715994390: Event_284: system.switch_cpus2 progress event, total committed:219485830, progress insts committed: 21953959, IPC: 002.1932
16579715994390: Event_285: system.switch_cpus3 progress event, total committed:219485721, progress insts committed: 21953787, IPC: 02.19318
16583049327723: Event_285: system.switch_cpus3 progress event, total committed:241504729, progress insts committed: 22019008, IPC: 002.1997
16583049327723: Event_284: system.switch_cpus2 progress event, total committed:241508679, progress insts committed: 22022849, IPC: 02.20008
16583049327723: Event_283: system.switch_cpus1 progress event, total committed:241463812, progress insts committed: 22020700, IPC: 02.19987
16583049327723: Event_282: system.switch_cpus0 progress event, total committed:241463926, progress insts committed: 22020747, IPC: 02.19987
16586382661056: Event_282: system.switch_cpus0 progress event, total committed:263579836, progress insts committed: 22115910, IPC: 02.20938
16586382661056: Event_283: system.switch_cpus1 progress event, total committed:263579823, progress insts committed: 22116011, IPC: 02.20939
16586382661056: Event_284: system.switch_cpus2 progress event, total committed:263657398, progress insts committed: 22148719, IPC: 02.21266
16586382661056: Event_285: system.switch_cpus3 progress event, total committed:263655156, progress insts committed: 22150427, IPC: 02.21283
16589715994389: Event_285: system.switch_cpus3 progress event, total committed:285669613, progress insts committed: 22014457, IPC: 02.19924
16589715994389: Event_284: system.switch_cpus2 progress event, total committed:285669627, progress insts committed: 22012229, IPC: 02.19902
16589715994389: Event_283: system.switch_cpus1 progress event, total committed:285582267, progress insts committed: 22002444, IPC: 02.19804
16589715994389: Event_282: system.switch_cpus0 progress event, total committed:285582300, progress insts committed: 22002464, IPC: 02.19805
16593049327722: Event_282: system.switch_cpus0 progress event, total committed:308236811, progress insts committed: 22654511, IPC: 02.26319
16593049327722: Event_283: system.switch_cpus1 progress event, total committed:308236892, progress insts committed: 22654625, IPC: 002.2632
16593049327722: Event_284: system.switch_cpus2 progress event, total committed:308333664, progress insts committed: 22664037, IPC: 02.26414
16593049327722: Event_285: system.switch_cpus3 progress event, total committed:308333664, progress insts committed: 22664051, IPC: 02.26414
16596382661055: Event_285: system.switch_cpus3 progress event, total committed:331097378, progress insts committed: 22763714, IPC: 002.2741
16596382661055: Event_284: system.switch_cpus2 progress event, total committed:331085980, progress insts committed: 22752316, IPC: 02.27296
16596382661055: Event_283: system.switch_cpus1 progress event, total committed:330961320, progress insts committed: 22724428, IPC: 02.27017
16596382661055: Event_282: system.switch_cpus0 progress event, total committed:330961252, progress insts committed: 22724441, IPC: 02.27017
16599715994388: Event_282: system.switch_cpus0 progress event, total committed:352936211, progress insts committed: 21974959, IPC: 002.1953
16599715994388: Event_283: system.switch_cpus1 progress event, total committed:352936244, progress insts committed: 21974924, IPC: 02.19529
16599715994388: Event_284: system.switch_cpus2 progress event, total committed:353049080, progress insts committed: 21963100, IPC: 02.19411
16599715994388: Event_285: system.switch_cpus3 progress event, total committed:353054615, progress insts committed: 21957237, IPC: 02.19353
16603049327721: Event_285: system.switch_cpus3 progress event, total committed:374747261, progress insts committed: 21692646, IPC: 002.1671
16603049327721: Event_284: system.switch_cpus2 progress event, total committed:374746695, progress insts committed: 21697615, IPC: 02.16759
16603049327721: Event_283: system.switch_cpus1 progress event, total committed:374661509, progress insts committed: 21725265, IPC: 02.17035
16603049327721: Event_282: system.switch_cpus0 progress event, total committed:374661509, progress insts committed: 21725298, IPC: 02.17036
16606382661054: Event_282: system.switch_cpus0 progress event, total committed:396630283, progress insts committed: 21968774, IPC: 02.19468
16606382661054: Event_283: system.switch_cpus1 progress event, total committed:396630291, progress insts committed: 21968782, IPC: 02.19468
16606382661054: Event_284: system.switch_cpus2 progress event, total committed:396712628, progress insts committed: 21965933, IPC: 002.1944
16606382661054: Event_285: system.switch_cpus3 progress event, total committed:396712623, progress insts committed: 21965362, IPC: 02.19434
Exiting @ tick 16607516736456 because a thread reached the max instruction count
