Command line:
./runscript_pride.sh mix15 RFM1.BR2.4C 4 2017 --rh_defense --rh_mitigation=RFM --rh_rfm_per_trefi=1 --rh_rfm_blast_radius=2 --rh_rfm_maxacts_per_trefi=79
Global frequency set at 1000000000000 ticks per second
RFM details - rfm_act_threshold: 79, blast_radius: 2, delay_per_rfm: 175000 ps. sample_rate: 0.012500
RH Defense config: RFM, Bus Delay: 0, rfms_per_trefi: 1, rfm_act_threshold: 79, blast_radius: 2,rfm_delay_per_act: 45000 ps.
DRAM config: RowsPerBank: 65536, BanksPerRank: 32, RanksPerChannel: 1
warn: Sockets disabled, not accepting gdb connections
warn: CoherentXBar system.cpu0.mmucache.mmubus has no snooping ports attached!
warn: CoherentXBar system.cpu1.mmucache.mmubus has no snooping ports attached!
warn: CoherentXBar system.cpu2.mmucache.mmubus has no snooping ports attached!
warn: CoherentXBar system.cpu3.mmucache.mmubus has no snooping ports attached!
warn: Checkpoints for file descriptors currently do not work.
warn: Checkpoints for file descriptors currently do not work.
warn: Checkpoints for file descriptors currently do not work.
warn: Checkpoints for file descriptors currently do not work.
gem5 Simulator System.  http://gem5.org
gem5 is copyrighted software; use the --copyright option for details.

gem5 version 20.1.0.5
gem5 compiled Jul 12 2024 12:42:38
gem5 started Aug  1 2024 16:47:12
gem5 executing on a07dda8b130c, pid 249994
command line: /home/user/PrIDE/performance/gem5/build/X86/gem5.opt --outdir=/home/user/PrIDE/performance/gem5/stats/pride_multiprogram_16GBmem_250Mn.SPEC2017.C4/RFM1.BR2.4C/mix15 /home/user/PrIDE/performance/gem5/configs/example/se_rq_spec_config_multicore.py --redirects /lib64=/home/utils/gcc-6.2.0/lib64 --benchmark=mix15 --benchmark_stdout=/home/user/PrIDE/performance/gem5/stats/pride_multiprogram_16GBmem_250Mn.SPEC2017.C4/RFM1.BR2.4C/mix15/mix15.out --benchmark_stderr=/home/user/PrIDE/performance/gem5/stats/pride_multiprogram_16GBmem_250Mn.SPEC2017.C4/RFM1.BR2.4C/mix15/mix15.err --spec-version=2017 --rh_defense --rh_mitigation=RFM --rh_rfm_per_trefi=1 --rh_rfm_blast_radius=2 --rh_rfm_maxacts_per_trefi=79 --num-cpus=4 --mem-size=16GB --mem-type=DDR5_2400_32x4 --mem-ranks=1 --mem-channels=1 --checkpoint-dir=/home/user/PrIDE/performance/gem5/cpts-DDR5/multiprogram_16GBmem_25Bn.SPEC2017.C4/mix15-1-ref-x86 --checkpoint-restore=25000000000 --at-instruction --cpu-type DerivO3CPU --caches --l2cache --l1d_size=32kB --l1i_size=32kB --l2_size=256kB --l3_size=4MB --l1d_assoc=8 --l1i_assoc=8 --l2_assoc=16 --l3_assoc=16 --cpu-clock=3GHz --sys-clock=3GHz --maxinsts=250000000 --prog-interval=300Hz

info: Standard input is not a terminal, disabling listeners.
Benchmark- 0   cactuBSSN
Selected benchmark
--> cactuBSSN
CMD: ['/opt/spec2017/benchspec/CPU/507.cactuBSSN_r/run/run_base_refrate_gem5_se-m64.0000/cactusBSSN_r_base.gem5_se-m64', '/opt/spec2017/benchspec/CPU/507.cactuBSSN_r/run/run_base_refrate_gem5_se-m64.0000/spec_ref.par']
CWD: /opt/spec2017/benchspec/CPU/507.cactuBSSN_r/run/run_base_refrate_gem5_se-m64.0000/
Process stdout file: /home/user/PrIDE/performance/gem5/stats/pride_multiprogram_16GBmem_250Mn.SPEC2017.C4/RFM1.BR2.4C/mix15/mix15.out_0
Process stderr file: /home/user/PrIDE/performance/gem5/stats/pride_multiprogram_16GBmem_250Mn.SPEC2017.C4/RFM1.BR2.4C/mix15/mix15.err_0
Benchmark- 1   xz
Selected benchmark
--> xz
CMD: ['/opt/spec2017/benchspec/CPU/557.xz_r/run/run_base_refrate_gem5_se-m64.0000/xz_r_base.gem5_se-m64', '/opt/spec2017/benchspec/CPU/557.xz_r/run/run_base_refrate_gem5_se-m64.0000/cld.tar.xz', '160', '19cf30ae51eddcbefda78dd06014b4b96281456e078ca7c13e1c0c9e6aaea8dff3efb4ad6b0456697718cede6bd5454852652806a657bb56e07d61128434b474', '59796407', '61004416', '6']
CWD: /opt/spec2017/benchspec/CPU/557.xz_r/run/run_base_refrate_gem5_se-m64.0000/
Process stdout file: /home/user/PrIDE/performance/gem5/stats/pride_multiprogram_16GBmem_250Mn.SPEC2017.C4/RFM1.BR2.4C/mix15/mix15.out_1
Process stderr file: /home/user/PrIDE/performance/gem5/stats/pride_multiprogram_16GBmem_250Mn.SPEC2017.C4/RFM1.BR2.4C/mix15/mix15.err_1
Benchmark- 2   roms
Selected benchmark
--> roms
CMD: ['/opt/spec2017/benchspec/CPU/554.roms_r/run/run_base_refrate_gem5_se-m64.0000/roms_r_base.gem5_se-m64']
CWD: /opt/spec2017/benchspec/CPU/554.roms_r/run/run_base_refrate_gem5_se-m64.0000/
Process stdout file: /home/user/PrIDE/performance/gem5/stats/pride_multiprogram_16GBmem_250Mn.SPEC2017.C4/RFM1.BR2.4C/mix15/mix15.out_2
Process stderr file: /home/user/PrIDE/performance/gem5/stats/pride_multiprogram_16GBmem_250Mn.SPEC2017.C4/RFM1.BR2.4C/mix15/mix15.err_2
Benchmark- 3   namd
Selected benchmark
--> namd
CMD: ['/opt/spec2017/benchspec/CPU/508.namd_r/run/run_base_refrate_gem5_se-m64.0000/namd_r_base.gem5_se-m64', '--input', '/opt/spec2017/benchspec/CPU/508.namd_r/run/run_base_refrate_gem5_se-m64.0000/apoa1.input', '--output', '/opt/spec2017/benchspec/CPU/508.namd_r/run/run_base_refrate_gem5_se-m64.0000/apoa1.ref.output', '--iterations', '65']
CWD: /opt/spec2017/benchspec/CPU/508.namd_r/run/run_base_refrate_gem5_se-m64.0000/
Process stdout file: /home/user/PrIDE/performance/gem5/stats/pride_multiprogram_16GBmem_250Mn.SPEC2017.C4/RFM1.BR2.4C/mix15/mix15.out_3
Process stderr file: /home/user/PrIDE/performance/gem5/stats/pride_multiprogram_16GBmem_250Mn.SPEC2017.C4/RFM1.BR2.4C/mix15/mix15.err_3
Workload-0: 
['/opt/spec2017/benchspec/CPU/507.cactuBSSN_r/run/run_base_refrate_gem5_se-m64.0000/cactusBSSN_r_base.gem5_se-m64', '/opt/spec2017/benchspec/CPU/507.cactuBSSN_r/run/run_base_refrate_gem5_se-m64.0000/spec_ref.par']
Workload-1: 
['/opt/spec2017/benchspec/CPU/557.xz_r/run/run_base_refrate_gem5_se-m64.0000/xz_r_base.gem5_se-m64', '/opt/spec2017/benchspec/CPU/557.xz_r/run/run_base_refrate_gem5_se-m64.0000/cld.tar.xz', '160', '19cf30ae51eddcbefda78dd06014b4b96281456e078ca7c13e1c0c9e6aaea8dff3efb4ad6b0456697718cede6bd5454852652806a657bb56e07d61128434b474', '59796407', '61004416', '6']
Workload-2: 
['/opt/spec2017/benchspec/CPU/554.roms_r/run/run_base_refrate_gem5_se-m64.0000/roms_r_base.gem5_se-m64']
Workload-3: 
['/opt/spec2017/benchspec/CPU/508.namd_r/run/run_base_refrate_gem5_se-m64.0000/namd_r_base.gem5_se-m64', '--input', '/opt/spec2017/benchspec/CPU/508.namd_r/run/run_base_refrate_gem5_se-m64.0000/apoa1.input', '--output', '/opt/spec2017/benchspec/CPU/508.namd_r/run/run_base_refrate_gem5_se-m64.0000/apoa1.ref.output', '--iterations', '65']
defense_enable:  True  detector:  MG  mitigation:  RFM  threshold:  800
mg_entries:  1700
rfm_maxacts_per_trefi:  79 rfm_per_trefi:  1 rfm_blast_radius:  2
Switch at curTick count:10000
warn: membus.master is deprecated. `master` is now called `mem_side_ports`
warn: No dot file generated. Please install pydot to generate the dot file and pdf.
info: Entering event queue @ 13945158483732.  Starting simulation...
info: Entering event queue @ 13945158493732.  Starting simulation...
warn: PowerState: Already in the requested power state, request ignored
Switched CPUS @ tick 13945158493732
switching cpus
**** REAL SIMULATION ****
info: Entering event queue @ 13945158494055.  Starting simulation...
warn: MOVNTDQ: Ignoring non-temporal hint, modeling as cacheable!
13948491817065: Event_285: system.switch_cpus3 progress event, total committed:33237110, progress insts committed: 33237110, IPC: 03.32039
13948491817065: Event_284: system.switch_cpus2 progress event, total committed:14959460, progress insts committed: 14959460, IPC: 01.49445
13948491817065: Event_283: system.switch_cpus1 progress event, total committed:16079221, progress insts committed: 16079221, IPC: 01.60631
13948491817065: Event_282: system.switch_cpus0 progress event, total committed:7214220, progress insts committed: 7214220, IPC: 0.720701
13951825150398: Event_282: system.switch_cpus0 progress event, total committed:14459146, progress insts committed: 7244926, IPC: 0.723768
13951825150398: Event_283: system.switch_cpus1 progress event, total committed:32407505, progress insts committed: 16328284, IPC: 001.6312
13951825150398: Event_284: system.switch_cpus2 progress event, total committed:30657489, progress insts committed: 15698029, IPC: 01.56823
13951825150398: Event_285: system.switch_cpus3 progress event, total committed:66130321, progress insts committed: 32893211, IPC: 03.28603
13955158483731: Event_285: system.switch_cpus3 progress event, total committed:98329439, progress insts committed: 32199118, IPC: 03.21669
13955158483731: Event_284: system.switch_cpus2 progress event, total committed:41832109, progress insts committed: 11174620, IPC: 01.11634
13955158483731: Event_283: system.switch_cpus1 progress event, total committed:48420082, progress insts committed: 16012577, IPC: 01.59966
13955158483731: Event_282: system.switch_cpus0 progress event, total committed:21655648, progress insts committed: 7196502, IPC: 0.718931
13958491817064: Event_282: system.switch_cpus0 progress event, total committed:28877607, progress insts committed: 7221959, IPC: 0.721474
13958491817064: Event_283: system.switch_cpus1 progress event, total committed:64369230, progress insts committed: 15949148, IPC: 01.59332
13958491817064: Event_284: system.switch_cpus2 progress event, total committed:49963316, progress insts committed: 8131207, IPC: 0.812308
13958491817064: Event_285: system.switch_cpus3 progress event, total committed:130513913, progress insts committed: 32184474, IPC: 03.21523
13961825150397: Event_285: system.switch_cpus3 progress event, total committed:164063179, progress insts committed: 33549266, IPC: 03.35157
13961825150397: Event_284: system.switch_cpus2 progress event, total committed:58654712, progress insts committed: 8691396, IPC: 00.86827
13961825150397: Event_283: system.switch_cpus1 progress event, total committed:80621752, progress insts committed: 16252522, IPC: 01.62363
13961825150397: Event_282: system.switch_cpus0 progress event, total committed:36204183, progress insts committed: 7326576, IPC: 0.731925
13965158483730: Event_282: system.switch_cpus0 progress event, total committed:43552543, progress insts committed: 7348360, IPC: 0.734101
13965158483730: Event_283: system.switch_cpus1 progress event, total committed:96968306, progress insts committed: 16346554, IPC: 01.63302
13965158483730: Event_284: system.switch_cpus2 progress event, total committed:66296021, progress insts committed: 7641309, IPC: 0.763367
13965158483730: Event_285: system.switch_cpus3 progress event, total committed:197064906, progress insts committed: 33001727, IPC: 03.29687
13968491817063: Event_285: system.switch_cpus3 progress event, total committed:229211618, progress insts committed: 32146712, IPC: 03.21146
13968491817063: Event_284: system.switch_cpus2 progress event, total committed:71224300, progress insts committed: 4928279, IPC: 0.492335
13968491817063: Event_283: system.switch_cpus1 progress event, total committed:112776218, progress insts committed: 15807912, IPC: 01.57921
13968491817063: Event_282: system.switch_cpus0 progress event, total committed:50716934, progress insts committed: 7164391, IPC: 0.715723
13971825150396: Event_282: system.switch_cpus0 progress event, total committed:57781251, progress insts committed: 7064317, IPC: 0.705725
13971825150396: Event_283: system.switch_cpus1 progress event, total committed:128704357, progress insts committed: 15928139, IPC: 01.59122
13971825150396: Event_284: system.switch_cpus2 progress event, total committed:75978998, progress insts committed: 4754698, IPC: 0.474994
13971825150396: Event_285: system.switch_cpus3 progress event, total committed:260347025, progress insts committed: 31135407, IPC: 03.11043
13975158483729: Event_285: system.switch_cpus3 progress event, total committed:292199914, progress insts committed: 31852889, IPC: 003.1821
13975158483729: Event_284: system.switch_cpus2 progress event, total committed:81947251, progress insts committed: 5968253, IPC: 0.596228
13975158483729: Event_283: system.switch_cpus1 progress event, total committed:144496585, progress insts committed: 15792228, IPC: 01.57764
13975158483729: Event_282: system.switch_cpus0 progress event, total committed:64950819, progress insts committed: 7169568, IPC: 00.71624
Exiting @ tick 13975625645073 because a thread reached the max instruction count
