Command line:
./runscript_pride.sh blender RFM10.BR2.4C 4 2017 --rh_defense --rh_mitigation=RFM --rh_rfm_per_trefi=10 --rh_rfm_blast_radius=2 --rh_rfm_maxacts_per_trefi=79
Global frequency set at 1000000000000 ticks per second
RFM details - rfm_act_threshold: 7, blast_radius: 2, delay_per_rfm: 175000 ps. sample_rate: 0.125000
RH Defense config: RFM, Bus Delay: 0, rfms_per_trefi: 10, rfm_act_threshold: 7, blast_radius: 2,rfm_delay_per_act: 45000 ps.
DRAM config: RowsPerBank: 65536, BanksPerRank: 32, RanksPerChannel: 1
warn: Sockets disabled, not accepting gdb connections
warn: CoherentXBar system.cpu0.mmucache.mmubus has no snooping ports attached!
warn: CoherentXBar system.cpu1.mmucache.mmubus has no snooping ports attached!
warn: CoherentXBar system.cpu2.mmucache.mmubus has no snooping ports attached!
warn: CoherentXBar system.cpu3.mmucache.mmubus has no snooping ports attached!
warn: Checkpoints for file descriptors currently do not work.
warn: Checkpoints for file descriptors currently do not work.
warn: Checkpoints for file descriptors currently do not work.
warn: Checkpoints for file descriptors currently do not work.
gem5 Simulator System.  http://gem5.org
gem5 is copyrighted software; use the --copyright option for details.

gem5 version 20.1.0.5
gem5 compiled Jul 12 2024 12:42:38
gem5 started Aug  1 2024 19:02:15
gem5 executing on a07dda8b130c, pid 251316
command line: /home/user/PrIDE/performance/gem5/build/X86/gem5.opt --outdir=/home/user/PrIDE/performance/gem5/stats/pride_multiprogram_16GBmem_250Mn.SPEC2017.C4/RFM10.BR2.4C/blender /home/user/PrIDE/performance/gem5/configs/example/se_rq_spec_config_multicore.py --redirects /lib64=/home/utils/gcc-6.2.0/lib64 --benchmark=blender --benchmark_stdout=/home/user/PrIDE/performance/gem5/stats/pride_multiprogram_16GBmem_250Mn.SPEC2017.C4/RFM10.BR2.4C/blender/blender.out --benchmark_stderr=/home/user/PrIDE/performance/gem5/stats/pride_multiprogram_16GBmem_250Mn.SPEC2017.C4/RFM10.BR2.4C/blender/blender.err --spec-version=2017 --rh_defense --rh_mitigation=RFM --rh_rfm_per_trefi=10 --rh_rfm_blast_radius=2 --rh_rfm_maxacts_per_trefi=79 --num-cpus=4 --mem-size=16GB --mem-type=DDR5_2400_32x4 --mem-ranks=1 --mem-channels=1 --checkpoint-dir=/home/user/PrIDE/performance/gem5/cpts-DDR5/multiprogram_16GBmem_25Bn.SPEC2017.C4/blender-1-ref-x86 --checkpoint-restore=25000000000 --at-instruction --cpu-type DerivO3CPU --caches --l2cache --l1d_size=32kB --l1i_size=32kB --l2_size=256kB --l3_size=4MB --l1d_assoc=8 --l1i_assoc=8 --l2_assoc=16 --l3_assoc=16 --cpu-clock=3GHz --sys-clock=3GHz --maxinsts=250000000 --prog-interval=300Hz

info: Standard input is not a terminal, disabling listeners.
Benchmark- 0   blender
Selected benchmark
--> blender
CMD: ['/opt/spec2017/benchspec/CPU/526.blender_r/run/run_base_refrate_gem5_se-m64.0000/blender_r_base.gem5_se-m64', '/opt/spec2017/benchspec/CPU/526.blender_r/run/run_base_refrate_gem5_se-m64.0000/sh3_no_char.blend', '--render-output', 'sh3_no_char_', '--threads', '1', '-b', '-F', 'RAWTGA', '-s', '849', '-e', '849', '-a']
CWD: /opt/spec2017/benchspec/CPU/526.blender_r/run/run_base_refrate_gem5_se-m64.0000/
Process stdout file: /home/user/PrIDE/performance/gem5/stats/pride_multiprogram_16GBmem_250Mn.SPEC2017.C4/RFM10.BR2.4C/blender/blender.out_0
Process stderr file: /home/user/PrIDE/performance/gem5/stats/pride_multiprogram_16GBmem_250Mn.SPEC2017.C4/RFM10.BR2.4C/blender/blender.err_0
Benchmark- 1   blender
Selected benchmark
--> blender
CMD: ['/opt/spec2017/benchspec/CPU/526.blender_r/run/run_base_refrate_gem5_se-m64.0000/blender_r_base.gem5_se-m64', '/opt/spec2017/benchspec/CPU/526.blender_r/run/run_base_refrate_gem5_se-m64.0000/sh3_no_char.blend', '--render-output', 'sh3_no_char_', '--threads', '1', '-b', '-F', 'RAWTGA', '-s', '849', '-e', '849', '-a']
CWD: /opt/spec2017/benchspec/CPU/526.blender_r/run/run_base_refrate_gem5_se-m64.0000/
Process stdout file: /home/user/PrIDE/performance/gem5/stats/pride_multiprogram_16GBmem_250Mn.SPEC2017.C4/RFM10.BR2.4C/blender/blender.out_1
Process stderr file: /home/user/PrIDE/performance/gem5/stats/pride_multiprogram_16GBmem_250Mn.SPEC2017.C4/RFM10.BR2.4C/blender/blender.err_1
Benchmark- 2   blender
Selected benchmark
--> blender
CMD: ['/opt/spec2017/benchspec/CPU/526.blender_r/run/run_base_refrate_gem5_se-m64.0000/blender_r_base.gem5_se-m64', '/opt/spec2017/benchspec/CPU/526.blender_r/run/run_base_refrate_gem5_se-m64.0000/sh3_no_char.blend', '--render-output', 'sh3_no_char_', '--threads', '1', '-b', '-F', 'RAWTGA', '-s', '849', '-e', '849', '-a']
CWD: /opt/spec2017/benchspec/CPU/526.blender_r/run/run_base_refrate_gem5_se-m64.0000/
Process stdout file: /home/user/PrIDE/performance/gem5/stats/pride_multiprogram_16GBmem_250Mn.SPEC2017.C4/RFM10.BR2.4C/blender/blender.out_2
Process stderr file: /home/user/PrIDE/performance/gem5/stats/pride_multiprogram_16GBmem_250Mn.SPEC2017.C4/RFM10.BR2.4C/blender/blender.err_2
Benchmark- 3   blender
Selected benchmark
--> blender
CMD: ['/opt/spec2017/benchspec/CPU/526.blender_r/run/run_base_refrate_gem5_se-m64.0000/blender_r_base.gem5_se-m64', '/opt/spec2017/benchspec/CPU/526.blender_r/run/run_base_refrate_gem5_se-m64.0000/sh3_no_char.blend', '--render-output', 'sh3_no_char_', '--threads', '1', '-b', '-F', 'RAWTGA', '-s', '849', '-e', '849', '-a']
CWD: /opt/spec2017/benchspec/CPU/526.blender_r/run/run_base_refrate_gem5_se-m64.0000/
Process stdout file: /home/user/PrIDE/performance/gem5/stats/pride_multiprogram_16GBmem_250Mn.SPEC2017.C4/RFM10.BR2.4C/blender/blender.out_3
Process stderr file: /home/user/PrIDE/performance/gem5/stats/pride_multiprogram_16GBmem_250Mn.SPEC2017.C4/RFM10.BR2.4C/blender/blender.err_3
Workload-0: 
['/opt/spec2017/benchspec/CPU/526.blender_r/run/run_base_refrate_gem5_se-m64.0000/blender_r_base.gem5_se-m64', '/opt/spec2017/benchspec/CPU/526.blender_r/run/run_base_refrate_gem5_se-m64.0000/sh3_no_char.blend', '--render-output', 'sh3_no_char_', '--threads', '1', '-b', '-F', 'RAWTGA', '-s', '849', '-e', '849', '-a']
Workload-1: 
['/opt/spec2017/benchspec/CPU/526.blender_r/run/run_base_refrate_gem5_se-m64.0000/blender_r_base.gem5_se-m64', '/opt/spec2017/benchspec/CPU/526.blender_r/run/run_base_refrate_gem5_se-m64.0000/sh3_no_char.blend', '--render-output', 'sh3_no_char_', '--threads', '1', '-b', '-F', 'RAWTGA', '-s', '849', '-e', '849', '-a']
Workload-2: 
['/opt/spec2017/benchspec/CPU/526.blender_r/run/run_base_refrate_gem5_se-m64.0000/blender_r_base.gem5_se-m64', '/opt/spec2017/benchspec/CPU/526.blender_r/run/run_base_refrate_gem5_se-m64.0000/sh3_no_char.blend', '--render-output', 'sh3_no_char_', '--threads', '1', '-b', '-F', 'RAWTGA', '-s', '849', '-e', '849', '-a']
Workload-3: 
['/opt/spec2017/benchspec/CPU/526.blender_r/run/run_base_refrate_gem5_se-m64.0000/blender_r_base.gem5_se-m64', '/opt/spec2017/benchspec/CPU/526.blender_r/run/run_base_refrate_gem5_se-m64.0000/sh3_no_char.blend', '--render-output', 'sh3_no_char_', '--threads', '1', '-b', '-F', 'RAWTGA', '-s', '849', '-e', '849', '-a']
defense_enable:  True  detector:  MG  mitigation:  RFM  threshold:  800
mg_entries:  1700
rfm_maxacts_per_trefi:  79 rfm_per_trefi:  10 rfm_blast_radius:  2
Switch at curTick count:10000
warn: membus.master is deprecated. `master` is now called `mem_side_ports`
warn: No dot file generated. Please install pydot to generate the dot file and pdf.
info: Entering event queue @ 18219162241026.  Starting simulation...
info: Entering event queue @ 18219162251026.  Starting simulation...
warn: PowerState: Already in the requested power state, request ignored
Switched CPUS @ tick 18219162251026
switching cpus
**** REAL SIMULATION ****
info: Entering event queue @ 18219162251682.  Starting simulation...
18222495574359: Event_285: system.switch_cpus3 progress event, total committed:4709044, progress insts committed: 4709044, IPC: 0.470433
18222495574359: Event_284: system.switch_cpus2 progress event, total committed:4679201, progress insts committed: 4679201, IPC: 0.467452
18222495574359: Event_283: system.switch_cpus1 progress event, total committed:4709210, progress insts committed: 4709210, IPC: 00.47045
18222495574359: Event_282: system.switch_cpus0 progress event, total committed:4691118, progress insts committed: 4691118, IPC: 0.468643
18225828907692: Event_282: system.switch_cpus0 progress event, total committed:9376766, progress insts committed: 4685648, IPC: 0.468096
18225828907692: Event_283: system.switch_cpus1 progress event, total committed:9422881, progress insts committed: 4713671, IPC: 0.470896
18225828907692: Event_284: system.switch_cpus2 progress event, total committed:9364466, progress insts committed: 4685265, IPC: 0.468058
18225828907692: Event_285: system.switch_cpus3 progress event, total committed:9419981, progress insts committed: 4710937, IPC: 0.470623
18229162241025: Event_285: system.switch_cpus3 progress event, total committed:13984679, progress insts committed: 4564698, IPC: 0.456013
18229162241025: Event_284: system.switch_cpus2 progress event, total committed:13909684, progress insts committed: 4545218, IPC: 0.454067
18229162241025: Event_283: system.switch_cpus1 progress event, total committed:13984570, progress insts committed: 4561689, IPC: 0.455713
18229162241025: Event_282: system.switch_cpus0 progress event, total committed:13924230, progress insts committed: 4547464, IPC: 0.454292
18232495574358: Event_282: system.switch_cpus0 progress event, total committed:18380118, progress insts committed: 4455888, IPC: 0.445143
18232495574358: Event_283: system.switch_cpus1 progress event, total committed:18453936, progress insts committed: 4469366, IPC: 00.44649
18232495574358: Event_284: system.switch_cpus2 progress event, total committed:18365952, progress insts committed: 4456268, IPC: 0.445181
18232495574358: Event_285: system.switch_cpus3 progress event, total committed:18455951, progress insts committed: 4471272, IPC: 00.44668
18235828907691: Event_285: system.switch_cpus3 progress event, total committed:22946177, progress insts committed: 4490226, IPC: 0.448574
18235828907691: Event_284: system.switch_cpus2 progress event, total committed:22829936, progress insts committed: 4463984, IPC: 0.445952
18235828907691: Event_283: system.switch_cpus1 progress event, total committed:22944422, progress insts committed: 4490486, IPC: 000.4486
18235828907691: Event_282: system.switch_cpus0 progress event, total committed:22843491, progress insts committed: 4463373, IPC: 0.445891
18239162241024: Event_282: system.switch_cpus0 progress event, total committed:27397248, progress insts committed: 4553757, IPC: 00.45492
18239162241024: Event_283: system.switch_cpus1 progress event, total committed:27516080, progress insts committed: 4571658, IPC: 0.456709
18239162241024: Event_284: system.switch_cpus2 progress event, total committed:27383927, progress insts committed: 4553991, IPC: 0.454944
18239162241024: Event_285: system.switch_cpus3 progress event, total committed:27518557, progress insts committed: 4572380, IPC: 0.456781
18242495574357: Event_285: system.switch_cpus3 progress event, total committed:32173024, progress insts committed: 4654467, IPC: 0.464981
18242495574357: Event_284: system.switch_cpus2 progress event, total committed:32017304, progress insts committed: 4633377, IPC: 0.462874
18242495574357: Event_283: system.switch_cpus1 progress event, total committed:32170216, progress insts committed: 4654136, IPC: 0.464948
18242495574357: Event_282: system.switch_cpus0 progress event, total committed:32028641, progress insts committed: 4631393, IPC: 0.462676
18245828907690: Event_282: system.switch_cpus0 progress event, total committed:36784138, progress insts committed: 4755497, IPC: 0.475074
18245828907690: Event_283: system.switch_cpus1 progress event, total committed:36944514, progress insts committed: 4774298, IPC: 0.476952
18245828907690: Event_284: system.switch_cpus2 progress event, total committed:36767270, progress insts committed: 4749966, IPC: 0.474522
18245828907690: Event_285: system.switch_cpus3 progress event, total committed:36950258, progress insts committed: 4777234, IPC: 0.477246
18249162241023: Event_285: system.switch_cpus3 progress event, total committed:41322575, progress insts committed: 4372317, IPC: 0.436794
18249162241023: Event_284: system.switch_cpus2 progress event, total committed:41195795, progress insts committed: 4428525, IPC: 00.44241
18249162241023: Event_283: system.switch_cpus1 progress event, total committed:41319651, progress insts committed: 4375137, IPC: 0.437076
18249162241023: Event_282: system.switch_cpus0 progress event, total committed:41194898, progress insts committed: 4410760, IPC: 0.440635
18252495574356: Event_282: system.switch_cpus0 progress event, total committed:43174788, progress insts committed: 1979890, IPC: 0.197791
18252495574356: Event_283: system.switch_cpus1 progress event, total committed:43343380, progress insts committed: 2023729, IPC: 0.202171
18252495574356: Event_284: system.switch_cpus2 progress event, total committed:43237560, progress insts committed: 2041765, IPC: 0.203972
18252495574356: Event_285: system.switch_cpus3 progress event, total committed:43348550, progress insts committed: 2025975, IPC: 0.202395
18255828907689: Event_285: system.switch_cpus3 progress event, total committed:45334325, progress insts committed: 1985775, IPC: 0.198379
18255828907689: Event_284: system.switch_cpus2 progress event, total committed:45223771, progress insts committed: 1986211, IPC: 0.198422
18255828907689: Event_283: system.switch_cpus1 progress event, total committed:45330196, progress insts committed: 1986816, IPC: 0.198483
18255828907689: Event_282: system.switch_cpus0 progress event, total committed:45133417, progress insts committed: 1958629, IPC: 0.195667
18259162241022: Event_282: system.switch_cpus0 progress event, total committed:47109184, progress insts committed: 1975767, IPC: 0.197379
18259162241022: Event_283: system.switch_cpus1 progress event, total committed:47329560, progress insts committed: 1999364, IPC: 0.199736
18259162241022: Event_284: system.switch_cpus2 progress event, total committed:47213460, progress insts committed: 1989689, IPC: 00.19877
18259162241022: Event_285: system.switch_cpus3 progress event, total committed:47312565, progress insts committed: 1978240, IPC: 0.197626
18262495574355: Event_285: system.switch_cpus3 progress event, total committed:49261380, progress insts committed: 1948815, IPC: 0.194687
18262495574355: Event_284: system.switch_cpus2 progress event, total committed:49114035, progress insts committed: 1900575, IPC: 0.189867
18262495574355: Event_283: system.switch_cpus1 progress event, total committed:49252195, progress insts committed: 1922635, IPC: 0.192071
18262495574355: Event_282: system.switch_cpus0 progress event, total committed:49039218, progress insts committed: 1930034, IPC: 00.19281
18265828907688: Event_282: system.switch_cpus0 progress event, total committed:50987210, progress insts committed: 1947992, IPC: 0.194604
18265828907688: Event_283: system.switch_cpus1 progress event, total committed:51210085, progress insts committed: 1957890, IPC: 0.195593
18265828907688: Event_284: system.switch_cpus2 progress event, total committed:51072106, progress insts committed: 1958071, IPC: 0.195611
18265828907688: Event_285: system.switch_cpus3 progress event, total committed:51231205, progress insts committed: 1969825, IPC: 0.196786
18269162241021: Event_285: system.switch_cpus3 progress event, total committed:53164286, progress insts committed: 1933081, IPC: 0.193115
18269162241021: Event_284: system.switch_cpus2 progress event, total committed:52998021, progress insts committed: 1925915, IPC: 0.192399
18269162241021: Event_283: system.switch_cpus1 progress event, total committed:53135301, progress insts committed: 1925216, IPC: 0.192329
18269162241021: Event_282: system.switch_cpus0 progress event, total committed:52930244, progress insts committed: 1943034, IPC: 0.194109
18272495574354: Event_282: system.switch_cpus0 progress event, total committed:54826263, progress insts committed: 1896019, IPC: 0.189412
18272495574354: Event_283: system.switch_cpus1 progress event, total committed:54997051, progress insts committed: 1861750, IPC: 0.185989
18272495574354: Event_284: system.switch_cpus2 progress event, total committed:54871875, progress insts committed: 1873854, IPC: 0.187198
18272495574354: Event_285: system.switch_cpus3 progress event, total committed:55036600, progress insts committed: 1872314, IPC: 0.187044
18275828907687: Event_285: system.switch_cpus3 progress event, total committed:57011540, progress insts committed: 1974940, IPC: 0.197297
18275828907687: Event_284: system.switch_cpus2 progress event, total committed:56828995, progress insts committed: 1957120, IPC: 0.195516
18275828907687: Event_283: system.switch_cpus1 progress event, total committed:56936355, progress insts committed: 1939304, IPC: 0.193736
18275828907687: Event_282: system.switch_cpus0 progress event, total committed:56777058, progress insts committed: 1950795, IPC: 0.194884
18279162241020: Event_282: system.switch_cpus0 progress event, total committed:58684183, progress insts committed: 1907125, IPC: 0.190522
18279162241020: Event_283: system.switch_cpus1 progress event, total committed:58896312, progress insts committed: 1959957, IPC: 000.1958
18279162241020: Event_284: system.switch_cpus2 progress event, total committed:58804485, progress insts committed: 1975490, IPC: 0.197351
18279162241020: Event_285: system.switch_cpus3 progress event, total committed:58995060, progress insts committed: 1983520, IPC: 0.198154
18282495574353: Event_285: system.switch_cpus3 progress event, total committed:60936230, progress insts committed: 1941170, IPC: 0.193923
18282495574353: Event_284: system.switch_cpus2 progress event, total committed:60724645, progress insts committed: 1920160, IPC: 0.191824
18282495574353: Event_283: system.switch_cpus1 progress event, total committed:60832826, progress insts committed: 1936514, IPC: 0.193458
18282495574353: Event_282: system.switch_cpus0 progress event, total committed:60586354, progress insts committed: 1902171, IPC: 0.190027
18285828907686: Event_282: system.switch_cpus0 progress event, total committed:62405149, progress insts committed: 1818795, IPC: 0.181698
18285828907686: Event_283: system.switch_cpus1 progress event, total committed:62668814, progress insts committed: 1835988, IPC: 0.183415
18285828907686: Event_284: system.switch_cpus2 progress event, total committed:62544367, progress insts committed: 1819722, IPC: 00.18179
18285828907686: Event_285: system.switch_cpus3 progress event, total committed:62777186, progress insts committed: 1840956, IPC: 0.183912
18289162241019: Event_285: system.switch_cpus3 progress event, total committed:64578275, progress insts committed: 1801089, IPC: 0.179929
18289162241019: Event_284: system.switch_cpus2 progress event, total committed:64366847, progress insts committed: 1822480, IPC: 0.182066
18289162241019: Event_283: system.switch_cpus1 progress event, total committed:64479000, progress insts committed: 1810186, IPC: 0.180838
18289162241019: Event_282: system.switch_cpus0 progress event, total committed:64220098, progress insts committed: 1814949, IPC: 0.181313
18292495574352: Event_282: system.switch_cpus0 progress event, total committed:66105443, progress insts committed: 1885345, IPC: 0.188346
18292495574352: Event_283: system.switch_cpus1 progress event, total committed:66368580, progress insts committed: 1889580, IPC: 0.188769
18292495574352: Event_284: system.switch_cpus2 progress event, total committed:66258085, progress insts committed: 1891238, IPC: 0.188935
18292495574352: Event_285: system.switch_cpus3 progress event, total committed:66469285, progress insts committed: 1891010, IPC: 0.188912
18295828907685: Event_285: system.switch_cpus3 progress event, total committed:68376355, progress insts committed: 1907070, IPC: 0.190516
18295828907685: Event_284: system.switch_cpus2 progress event, total committed:68163285, progress insts committed: 1905200, IPC: 0.190329
18295828907685: Event_283: system.switch_cpus1 progress event, total committed:68286375, progress insts committed: 1917795, IPC: 0.191588
18295828907685: Event_282: system.switch_cpus0 progress event, total committed:68013824, progress insts committed: 1908381, IPC: 0.190647
18299162241018: Event_282: system.switch_cpus0 progress event, total committed:69980468, progress insts committed: 1966644, IPC: 0.196468
18299162241018: Event_283: system.switch_cpus1 progress event, total committed:70250150, progress insts committed: 1963775, IPC: 0.196181
18299162241018: Event_284: system.switch_cpus2 progress event, total committed:70104565, progress insts committed: 1941280, IPC: 0.193934
18299162241018: Event_285: system.switch_cpus3 progress event, total committed:70299796, progress insts committed: 1923441, IPC: 0.192152
18302495574351: Event_285: system.switch_cpus3 progress event, total committed:72257815, progress insts committed: 1958019, IPC: 0.195606
18302495574351: Event_284: system.switch_cpus2 progress event, total committed:72065315, progress insts committed: 1960750, IPC: 0.195879
18302495574351: Event_283: system.switch_cpus1 progress event, total committed:72211395, progress insts committed: 1961245, IPC: 0.195928
18302495574351: Event_282: system.switch_cpus0 progress event, total committed:71941108, progress insts committed: 1960640, IPC: 0.195868
18305828907684: Event_282: system.switch_cpus0 progress event, total committed:73812758, progress insts committed: 1871650, IPC: 0.186978
18305828907684: Event_283: system.switch_cpus1 progress event, total committed:74068085, progress insts committed: 1856690, IPC: 0.185483
18305828907684: Event_284: system.switch_cpus2 progress event, total committed:73947525, progress insts committed: 1882210, IPC: 0.188033
18305828907684: Event_285: system.switch_cpus3 progress event, total committed:74117199, progress insts committed: 1859384, IPC: 0.185752
18309162241017: Event_285: system.switch_cpus3 progress event, total committed:76043186, progress insts committed: 1925987, IPC: 0.192406
18309162241017: Event_284: system.switch_cpus2 progress event, total committed:75883635, progress insts committed: 1936110, IPC: 0.193417
18309162241017: Event_283: system.switch_cpus1 progress event, total committed:75945785, progress insts committed: 1877700, IPC: 0.187582
18309162241017: Event_282: system.switch_cpus0 progress event, total committed:75687568, progress insts committed: 1874810, IPC: 0.187294
18312495574350: Event_282: system.switch_cpus0 progress event, total committed:77621398, progress insts committed: 1933830, IPC: 00.19319
18312495574350: Event_283: system.switch_cpus1 progress event, total committed:77849060, progress insts committed: 1903275, IPC: 0.190137
18312495574350: Event_284: system.switch_cpus2 progress event, total committed:77815620, progress insts committed: 1931985, IPC: 0.193005
18312495574350: Event_285: system.switch_cpus3 progress event, total committed:77963625, progress insts committed: 1920439, IPC: 0.191852
18315828907683: Event_285: system.switch_cpus3 progress event, total committed:82255022, progress insts committed: 4291397, IPC: 0.428711
18315828907683: Event_284: system.switch_cpus2 progress event, total committed:81994829, progress insts committed: 4179209, IPC: 0.417503
18315828907683: Event_283: system.switch_cpus1 progress event, total committed:81984428, progress insts committed: 4135368, IPC: 0.413123
18315828907683: Event_282: system.switch_cpus0 progress event, total committed:81642876, progress insts committed: 4021478, IPC: 0.401746
18319162241016: Event_282: system.switch_cpus0 progress event, total committed:86485953, progress insts committed: 4843077, IPC: 0.483823
18319162241016: Event_283: system.switch_cpus1 progress event, total committed:86890743, progress insts committed: 4906315, IPC: 0.490141
18319162241016: Event_284: system.switch_cpus2 progress event, total committed:86863913, progress insts committed: 4869084, IPC: 0.486421
18319162241016: Event_285: system.switch_cpus3 progress event, total committed:87132679, progress insts committed: 4877657, IPC: 0.487278
18322495574349: Event_285: system.switch_cpus3 progress event, total committed:92050503, progress insts committed: 4917824, IPC: 0.491291
18322495574349: Event_284: system.switch_cpus2 progress event, total committed:91753908, progress insts committed: 4889995, IPC: 0.488511
18322495574349: Event_283: system.switch_cpus1 progress event, total committed:91820772, progress insts committed: 4930029, IPC: 00.49251
18322495574349: Event_282: system.switch_cpus0 progress event, total committed:91391191, progress insts committed: 4905238, IPC: 0.490033
18325828907682: Event_282: system.switch_cpus0 progress event, total committed:96369481, progress insts committed: 4978290, IPC: 0.497331
18325828907682: Event_283: system.switch_cpus1 progress event, total committed:96828198, progress insts committed: 5007426, IPC: 0.500242
18325828907682: Event_284: system.switch_cpus2 progress event, total committed:96725355, progress insts committed: 4971447, IPC: 0.496648
18325828907682: Event_285: system.switch_cpus3 progress event, total committed:97060032, progress insts committed: 5009529, IPC: 0.500452
18329162241015: Event_285: system.switch_cpus3 progress event, total committed:102056716, progress insts committed: 4996684, IPC: 0.499169
18329162241015: Event_284: system.switch_cpus2 progress event, total committed:101690901, progress insts committed: 4965546, IPC: 0.496058
18329162241015: Event_283: system.switch_cpus1 progress event, total committed:101830822, progress insts committed: 5002624, IPC: 0.499762
18329162241015: Event_282: system.switch_cpus0 progress event, total committed:101346029, progress insts committed: 4976548, IPC: 0.497157
18332495574348: Event_282: system.switch_cpus0 progress event, total committed:106129835, progress insts committed: 4783806, IPC: 0.477902
18332495574348: Event_283: system.switch_cpus1 progress event, total committed:106651579, progress insts committed: 4820757, IPC: 0.481594
18332495574348: Event_284: system.switch_cpus2 progress event, total committed:106482960, progress insts committed: 4792059, IPC: 0.478727
18332495574348: Event_285: system.switch_cpus3 progress event, total committed:106883048, progress insts committed: 4826332, IPC: 0.482151
18335828907681: Event_285: system.switch_cpus3 progress event, total committed:111608173, progress insts committed: 4725125, IPC: 00.47204
18335828907681: Event_284: system.switch_cpus2 progress event, total committed:111207441, progress insts committed: 4724481, IPC: 0.471976
18335828907681: Event_283: system.switch_cpus1 progress event, total committed:111385281, progress insts committed: 4733702, IPC: 0.472897
18335828907681: Event_282: system.switch_cpus0 progress event, total committed:110854031, progress insts committed: 4724196, IPC: 0.471947
18339162241014: Event_282: system.switch_cpus0 progress event, total committed:115541987, progress insts committed: 4687956, IPC: 0.468327
18339162241014: Event_283: system.switch_cpus1 progress event, total committed:116102260, progress insts committed: 4716979, IPC: 0.471226
18339162241014: Event_284: system.switch_cpus2 progress event, total committed:115914064, progress insts committed: 4706623, IPC: 0.470192
18339162241014: Event_285: system.switch_cpus3 progress event, total committed:116345911, progress insts committed: 4737738, IPC: 000.4733
18342495574347: Event_285: system.switch_cpus3 progress event, total committed:120316841, progress insts committed: 3970930, IPC: 0.396696
18342495574347: Event_284: system.switch_cpus2 progress event, total committed:120300411, progress insts committed: 4386347, IPC: 0.438196
18342495574347: Event_283: system.switch_cpus1 progress event, total committed:120308423, progress insts committed: 4206163, IPC: 0.420196
18342495574347: Event_282: system.switch_cpus0 progress event, total committed:120287340, progress insts committed: 4745353, IPC: 0.474061
18345828907680: Event_282: system.switch_cpus0 progress event, total committed:120445059, progress insts committed: 157719, IPC: 0.0157561
18345828907680: Event_283: system.switch_cpus1 progress event, total committed:120467688, progress insts committed: 159265, IPC: 0.0159106
18345828907680: Event_284: system.switch_cpus2 progress event, total committed:120458045, progress insts committed: 157634, IPC: 0.0157476
18345828907680: Event_285: system.switch_cpus3 progress event, total committed:120475925, progress insts committed: 159084, IPC: 0.0158925
18349162241013: Event_285: system.switch_cpus3 progress event, total committed:120609588, progress insts committed: 133663, IPC: 0.0133529
18349162241013: Event_284: system.switch_cpus2 progress event, total committed:120590078, progress insts committed: 132033, IPC: 0.0131901
18349162241013: Event_283: system.switch_cpus1 progress event, total committed:120600494, progress insts committed: 132806, IPC: 0.0132673
18349162241013: Event_282: system.switch_cpus0 progress event, total committed:120576624, progress insts committed: 131565, IPC: 0.0131433
18352495574346: Event_282: system.switch_cpus0 progress event, total committed:120708453, progress insts committed: 131829, IPC: 0.0131697
18352495574346: Event_283: system.switch_cpus1 progress event, total committed:120736256, progress insts committed: 135762, IPC: 0.0135626
18352495574346: Event_284: system.switch_cpus2 progress event, total committed:120722870, progress insts committed: 132792, IPC: 0.0132659
18352495574346: Event_285: system.switch_cpus3 progress event, total committed:120744248, progress insts committed: 134660, IPC: 0.0134525
18355828907679: Event_285: system.switch_cpus3 progress event, total committed:120877769, progress insts committed: 133521, IPC: 0.0133387
18355828907679: Event_284: system.switch_cpus2 progress event, total committed:120854795, progress insts committed: 131925, IPC: 0.0131793
18355828907679: Event_283: system.switch_cpus1 progress event, total committed:120870281, progress insts committed: 134025, IPC: 0.0133891
18355828907679: Event_282: system.switch_cpus0 progress event, total committed:120839307, progress insts committed: 130854, IPC: 0.0130723
18359162241012: Event_282: system.switch_cpus0 progress event, total committed:120973188, progress insts committed: 133881, IPC: 0.0133747
18359162241012: Event_283: system.switch_cpus1 progress event, total committed:121003760, progress insts committed: 133479, IPC: 0.0133346
18359162241012: Event_284: system.switch_cpus2 progress event, total committed:120988520, progress insts committed: 133725, IPC: 0.0133591
18359162241012: Event_285: system.switch_cpus3 progress event, total committed:121012049, progress insts committed: 134280, IPC: 0.0134146
18362495574345: Event_285: system.switch_cpus3 progress event, total committed:121142390, progress insts committed: 130341, IPC: 0.0130211
18362495574345: Event_284: system.switch_cpus2 progress event, total committed:121119317, progress insts committed: 130797, IPC: 0.0130666
18362495574345: Event_283: system.switch_cpus1 progress event, total committed:121135298, progress insts committed: 131538, IPC: 0.0131406
18362495574345: Event_282: system.switch_cpus0 progress event, total committed:121106475, progress insts committed: 133287, IPC: 0.0133154
18365828907678: Event_282: system.switch_cpus0 progress event, total committed:121234743, progress insts committed: 128268, IPC: 0.012814
18365828907678: Event_283: system.switch_cpus1 progress event, total committed:121267760, progress insts committed: 132462, IPC: 0.013233
18365828907678: Event_284: system.switch_cpus2 progress event, total committed:121247742, progress insts committed: 128425, IPC: 0.0128297
18365828907678: Event_285: system.switch_cpus3 progress event, total committed:121276469, progress insts committed: 134079, IPC: 0.0133945
18369162241011: Event_285: system.switch_cpus3 progress event, total committed:121416810, progress insts committed: 140341, IPC: 0.0140201
18369162241011: Event_284: system.switch_cpus2 progress event, total committed:121382427, progress insts committed: 134685, IPC: 0.013455
18369162241011: Event_283: system.switch_cpus1 progress event, total committed:121407792, progress insts committed: 140032, IPC: 0.0139892
18369162241011: Event_282: system.switch_cpus0 progress event, total committed:121366852, progress insts committed: 132109, IPC: 0.0131977
18372495574344: Event_282: system.switch_cpus0 progress event, total committed:121509580, progress insts committed: 142728, IPC: 0.0142585
18372495574344: Event_283: system.switch_cpus1 progress event, total committed:121551591, progress insts committed: 143799, IPC: 0.0143655
18372495574344: Event_284: system.switch_cpus2 progress event, total committed:121524411, progress insts committed: 141984, IPC: 0.0141842
18372495574344: Event_285: system.switch_cpus3 progress event, total committed:121559832, progress insts committed: 143022, IPC: 0.0142879
18375828907677: Event_285: system.switch_cpus3 progress event, total committed:121704045, progress insts committed: 144213, IPC: 0.0144069
18375828907677: Event_284: system.switch_cpus2 progress event, total committed:121665165, progress insts committed: 140754, IPC: 0.0140613
18375828907677: Event_283: system.switch_cpus1 progress event, total committed:121693848, progress insts committed: 142257, IPC: 0.0142115
18375828907677: Event_282: system.switch_cpus0 progress event, total committed:121649635, progress insts committed: 140055, IPC: 0.0139915
18379162241010: Event_282: system.switch_cpus0 progress event, total committed:121789516, progress insts committed: 139881, IPC: 0.0139741
18379162241010: Event_283: system.switch_cpus1 progress event, total committed:121836390, progress insts committed: 142542, IPC: 0.0142399
18379162241010: Event_284: system.switch_cpus2 progress event, total committed:121804698, progress insts committed: 139533, IPC: 0.0139393
18379162241010: Event_285: system.switch_cpus3 progress event, total committed:121846125, progress insts committed: 142080, IPC: 0.0141938
18382495574343: Event_285: system.switch_cpus3 progress event, total committed:121989351, progress insts committed: 143226, IPC: 0.0143083
18382495574343: Event_284: system.switch_cpus2 progress event, total committed:121946853, progress insts committed: 142155, IPC: 0.0142013
18382495574343: Event_283: system.switch_cpus1 progress event, total committed:121980924, progress insts committed: 144534, IPC: 0.0144389
18382495574343: Event_282: system.switch_cpus0 progress event, total committed:121931221, progress insts committed: 141705, IPC: 0.0141563
18385828907676: Event_282: system.switch_cpus0 progress event, total committed:122072311, progress insts committed: 141090, IPC: 0.0140949
18385828907676: Event_283: system.switch_cpus1 progress event, total committed:122123166, progress insts committed: 142242, IPC: 00.01421
18385828907676: Event_284: system.switch_cpus2 progress event, total committed:122086608, progress insts committed: 139755, IPC: 0.0139615
18385828907676: Event_285: system.switch_cpus3 progress event, total committed:122132235, progress insts committed: 142884, IPC: 0.0142741
18389162241009: Event_285: system.switch_cpus3 progress event, total committed:122274576, progress insts committed: 142341, IPC: 0.0142199
18389162241009: Event_284: system.switch_cpus2 progress event, total committed:122228274, progress insts committed: 141666, IPC: 0.0141524
18389162241009: Event_283: system.switch_cpus1 progress event, total committed:122265573, progress insts committed: 142407, IPC: 0.0142265
18389162241009: Event_282: system.switch_cpus0 progress event, total committed:122213104, progress insts committed: 140793, IPC: 0.0140652
18392495574342: Event_282: system.switch_cpus0 progress event, total committed:122353426, progress insts committed: 140322, IPC: 0.0140182
18392495574342: Event_283: system.switch_cpus1 progress event, total committed:122408229, progress insts committed: 142656, IPC: 0.0142513
18392495574342: Event_284: system.switch_cpus2 progress event, total committed:122368962, progress insts committed: 140688, IPC: 0.0140547
18392495574342: Event_285: system.switch_cpus3 progress event, total committed:122417985, progress insts committed: 143409, IPC: 0.0143266
18395828907675: Event_285: system.switch_cpus3 progress event, total committed:122560674, progress insts committed: 142689, IPC: 0.0142546
18395828907675: Event_284: system.switch_cpus2 progress event, total committed:122509401, progress insts committed: 140439, IPC: 0.0140299
18395828907675: Event_283: system.switch_cpus1 progress event, total committed:122552268, progress insts committed: 144039, IPC: 0.0143895
18395828907675: Event_282: system.switch_cpus0 progress event, total committed:122494987, progress insts committed: 141561, IPC: 0.0141419
18399162241008: Event_282: system.switch_cpus0 progress event, total committed:122637148, progress insts committed: 142161, IPC: 0.0142019
18399162241008: Event_283: system.switch_cpus1 progress event, total committed:122696418, progress insts committed: 144150, IPC: 0.0144006
18399162241008: Event_284: system.switch_cpus2 progress event, total committed:122651949, progress insts committed: 142548, IPC: 0.0142405
18399162241008: Event_285: system.switch_cpus3 progress event, total committed:122704926, progress insts committed: 144252, IPC: 0.0144108
18402495574341: Event_285: system.switch_cpus3 progress event, total committed:122848710, progress insts committed: 143784, IPC: 0.014364
18402495574341: Event_284: system.switch_cpus2 progress event, total committed:122794560, progress insts committed: 142611, IPC: 0.0142468
18402495574341: Event_283: system.switch_cpus1 progress event, total committed:122840136, progress insts committed: 143718, IPC: 0.0143574
18402495574341: Event_282: system.switch_cpus0 progress event, total committed:122779813, progress insts committed: 142665, IPC: 0.0142522
18405828907674: Event_282: system.switch_cpus0 progress event, total committed:122921986, progress insts committed: 142173, IPC: 0.0142031
18405828907674: Event_283: system.switch_cpus1 progress event, total committed:122984064, progress insts committed: 143928, IPC: 0.0143784
18405828907674: Event_284: system.switch_cpus2 progress event, total committed:122937447, progress insts committed: 142887, IPC: 0.0142744
18405828907674: Event_285: system.switch_cpus3 progress event, total committed:122994276, progress insts committed: 145566, IPC: 0.014542
18409162241007: Event_285: system.switch_cpus3 progress event, total committed:123140082, progress insts committed: 145806, IPC: 0.014566
18409162241007: Event_284: system.switch_cpus2 progress event, total committed:123080370, progress insts committed: 142923, IPC: 0.014278
18409162241007: Event_283: system.switch_cpus1 progress event, total committed:123130356, progress insts committed: 146292, IPC: 0.0146146
18409162241007: Event_282: system.switch_cpus0 progress event, total committed:123065119, progress insts committed: 143133, IPC: 0.014299
18412495574340: Event_282: system.switch_cpus0 progress event, total committed:123208150, progress insts committed: 143031, IPC: 0.0142888
18412495574340: Event_283: system.switch_cpus1 progress event, total committed:123273423, progress insts committed: 143067, IPC: 0.0142924
18412495574340: Event_284: system.switch_cpus2 progress event, total committed:123224082, progress insts committed: 143712, IPC: 0.0143568
18412495574340: Event_285: system.switch_cpus3 progress event, total committed:123281121, progress insts committed: 141039, IPC: 0.0140898
18415828907673: Event_285: system.switch_cpus3 progress event, total committed:124363261, progress insts committed: 1082140, IPC: 0.108106
18415828907673: Event_284: system.switch_cpus2 progress event, total committed:123334742, progress insts committed: 110660, IPC: 0.0110549
18415828907673: Event_283: system.switch_cpus1 progress event, total committed:124213157, progress insts committed: 939734, IPC: 0.0938794
18415828907673: Event_282: system.switch_cpus0 progress event, total committed:123295591, progress insts committed: 87441, IPC: 0.00873536
18419162241006: Event_282: system.switch_cpus0 progress event, total committed:123957285, progress insts committed: 661694, IPC: 0.0661032
18419162241006: Event_283: system.switch_cpus1 progress event, total committed:125073617, progress insts committed: 860460, IPC: 00.08596
18419162241006: Event_284: system.switch_cpus2 progress event, total committed:124199582, progress insts committed: 864840, IPC: 0.0863975
18419162241006: Event_285: system.switch_cpus3 progress event, total committed:125221907, progress insts committed: 858646, IPC: 0.0857787
18422495574339: Event_285: system.switch_cpus3 progress event, total committed:126122837, progress insts committed: 900930, IPC: 0.0900029
18422495574339: Event_284: system.switch_cpus2 progress event, total committed:125125022, progress insts committed: 925440, IPC: 0.0924515
18422495574339: Event_283: system.switch_cpus1 progress event, total committed:125973947, progress insts committed: 900330, IPC: 0.089943
18422495574339: Event_282: system.switch_cpus0 progress event, total committed:124883325, progress insts committed: 926040, IPC: 0.0925114
18425828907672: Event_282: system.switch_cpus0 progress event, total committed:125796780, progress insts committed: 913455, IPC: 0.0912542
18425828907672: Event_283: system.switch_cpus1 progress event, total committed:126903077, progress insts committed: 929130, IPC: 0.0928201
18425828907672: Event_284: system.switch_cpus2 progress event, total committed:126030137, progress insts committed: 905115, IPC: 0.090421
18425828907672: Event_285: system.switch_cpus3 progress event, total committed:127056422, progress insts committed: 933585, IPC: 0.0932651
18429162241005: Event_285: system.switch_cpus3 progress event, total committed:127986917, progress insts committed: 930495, IPC: 0.0929565
18429162241005: Event_284: system.switch_cpus2 progress event, total committed:126955982, progress insts committed: 925845, IPC: 0.0924919
18429162241005: Event_283: system.switch_cpus1 progress event, total committed:127833301, progress insts committed: 930224, IPC: 0.0929294
18429162241005: Event_282: system.switch_cpus0 progress event, total committed:126714780, progress insts committed: 918000, IPC: 0.0917082
18432495574338: Event_282: system.switch_cpus0 progress event, total committed:127638765, progress insts committed: 923985, IPC: 0.0923061
18432495574338: Event_283: system.switch_cpus1 progress event, total committed:128757437, progress insts committed: 924136, IPC: 0.0923212
18432495574338: Event_284: system.switch_cpus2 progress event, total committed:127880267, progress insts committed: 924285, IPC: 0.0923361
18432495574338: Event_285: system.switch_cpus3 progress event, total committed:128910122, progress insts committed: 923205, IPC: 0.0922282
18435828907671: Event_285: system.switch_cpus3 progress event, total committed:129826022, progress insts committed: 915900, IPC: 0.0914984
18435828907671: Event_284: system.switch_cpus2 progress event, total committed:128795477, progress insts committed: 915210, IPC: 0.0914295
18435828907671: Event_283: system.switch_cpus1 progress event, total committed:129672182, progress insts committed: 914745, IPC: 0.091383
18435828907671: Event_282: system.switch_cpus0 progress event, total committed:128554245, progress insts committed: 915480, IPC: 0.0914565
18439162241004: Event_282: system.switch_cpus0 progress event, total committed:129482085, progress insts committed: 927840, IPC: 0.0926912
18439162241004: Event_283: system.switch_cpus1 progress event, total committed:130600142, progress insts committed: 927960, IPC: 0.0927032
18439162241004: Event_284: system.switch_cpus2 progress event, total committed:129723302, progress insts committed: 927825, IPC: 0.0926897
18439162241004: Event_285: system.switch_cpus3 progress event, total committed:130750327, progress insts committed: 924305, IPC: 0.0923381
18442495574337: Event_285: system.switch_cpus3 progress event, total committed:131664527, progress insts committed: 914200, IPC: 0.0913286
18442495574337: Event_284: system.switch_cpus2 progress event, total committed:130673702, progress insts committed: 950400, IPC: 0.094945
18442495574337: Event_283: system.switch_cpus1 progress event, total committed:131514977, progress insts committed: 914835, IPC: 0.091392
18442495574337: Event_282: system.switch_cpus0 progress event, total committed:130432845, progress insts committed: 950760, IPC: 0.0949809
18445828907670: Event_282: system.switch_cpus0 progress event, total committed:131330070, progress insts committed: 897225, IPC: 0.0896328
18445828907670: Event_283: system.switch_cpus1 progress event, total committed:132429902, progress insts committed: 914925, IPC: 0.091401
18445828907670: Event_284: system.switch_cpus2 progress event, total committed:131566112, progress insts committed: 892410, IPC: 0.0891518
18445828907670: Event_285: system.switch_cpus3 progress event, total committed:132578581, progress insts committed: 914054, IPC: 0.091314
18449162241003: Event_285: system.switch_cpus3 progress event, total committed:133513908, progress insts committed: 935327, IPC: 0.0934392
18449162241003: Event_284: system.switch_cpus2 progress event, total committed:132509582, progress insts committed: 943470, IPC: 0.0942527
18449162241003: Event_283: system.switch_cpus1 progress event, total committed:133366217, progress insts committed: 936315, IPC: 0.0935379
18449162241003: Event_282: system.switch_cpus0 progress event, total committed:132272340, progress insts committed: 942270, IPC: 0.0941328
warn: MOVNTDQ: Ignoring non-temporal hint, modeling as cacheable!
18452495574336: Event_282: system.switch_cpus0 progress event, total committed:133701295, progress insts committed: 1428955, IPC: 0.142753
18452495574336: Event_283: system.switch_cpus1 progress event, total committed:133933929, progress insts committed: 567712, IPC: 0.0567144
18452495574336: Event_284: system.switch_cpus2 progress event, total committed:133749195, progress insts committed: 1239613, IPC: 0.123837
18452495574336: Event_285: system.switch_cpus3 progress event, total committed:133967358, progress insts committed: 453450, IPC: 0.0452997
18455828907669: Event_285: system.switch_cpus3 progress event, total committed:134512683, progress insts committed: 545325, IPC: 0.054478
18455828907669: Event_284: system.switch_cpus2 progress event, total committed:134294487, progress insts committed: 545292, IPC: 0.0544747
18455828907669: Event_283: system.switch_cpus1 progress event, total committed:134479155, progress insts committed: 545226, IPC: 0.0544681
18455828907669: Event_282: system.switch_cpus0 progress event, total committed:134246620, progress insts committed: 545325, IPC: 0.054478
18459162241002: Event_282: system.switch_cpus0 progress event, total committed:134743336, progress insts committed: 496716, IPC: 0.0496219
18459162241002: Event_283: system.switch_cpus1 progress event, total committed:134975871, progress insts committed: 496716, IPC: 0.0496219
18459162241002: Event_284: system.switch_cpus2 progress event, total committed:134791206, progress insts committed: 496719, IPC: 0.0496222
18459162241002: Event_285: system.switch_cpus3 progress event, total committed:135009405, progress insts committed: 496722, IPC: 0.0496225
18462495574335: Event_285: system.switch_cpus3 progress event, total committed:135504036, progress insts committed: 494631, IPC: 0.0494136
18462495574335: Event_284: system.switch_cpus2 progress event, total committed:135285840, progress insts committed: 494634, IPC: 0.0494139
18462495574335: Event_283: system.switch_cpus1 progress event, total committed:135470508, progress insts committed: 494637, IPC: 0.0494142
18462495574335: Event_282: system.switch_cpus0 progress event, total committed:135237973, progress insts committed: 494637, IPC: 0.0494142
18465828907668: Event_282: system.switch_cpus0 progress event, total committed:135544083, progress insts committed: 306110, IPC: 0.0305804
18465828907668: Event_283: system.switch_cpus1 progress event, total committed:136661270, progress insts committed: 1190762, IPC: 0.118957
18465828907668: Event_284: system.switch_cpus2 progress event, total committed:135766895, progress insts committed: 481055, IPC: 0.0480574
18465828907668: Event_285: system.switch_cpus3 progress event, total committed:136838735, progress insts committed: 1334699, IPC: 0.133336
18469162241001: Event_285: system.switch_cpus3 progress event, total committed:137741900, progress insts committed: 903165, IPC: 0.0902262
18469162241001: Event_284: system.switch_cpus2 progress event, total committed:136689395, progress insts committed: 922500, IPC: 0.0921578
18469162241001: Event_283: system.switch_cpus1 progress event, total committed:137574890, progress insts committed: 913620, IPC: 0.0912706
18469162241001: Event_282: system.switch_cpus0 progress event, total committed:136466388, progress insts committed: 922305, IPC: 0.0921383
18472495574334: Event_282: system.switch_cpus0 progress event, total committed:137374128, progress insts committed: 907740, IPC: 0.0906832
18472495574334: Event_283: system.switch_cpus1 progress event, total committed:138441185, progress insts committed: 866295, IPC: 0.0865429
18472495574334: Event_284: system.switch_cpus2 progress event, total committed:137588180, progress insts committed: 898785, IPC: 0.0897886
18472495574334: Event_285: system.switch_cpus3 progress event, total committed:138611075, progress insts committed: 869175, IPC: 0.0868306
18475828907667: Event_285: system.switch_cpus3 progress event, total committed:139434620, progress insts committed: 823545, IPC: 0.0822721
18475828907667: Event_284: system.switch_cpus2 progress event, total committed:138413330, progress insts committed: 825150, IPC: 0.0824325
18475828907667: Event_283: system.switch_cpus1 progress event, total committed:139268330, progress insts committed: 827145, IPC: 0.0826318
18475828907667: Event_282: system.switch_cpus0 progress event, total committed:138200763, progress insts committed: 826635, IPC: 0.0825808
18479162241000: Event_282: system.switch_cpus0 progress event, total committed:139027083, progress insts committed: 826320, IPC: 0.0825494
18479162241000: Event_283: system.switch_cpus1 progress event, total committed:140076125, progress insts committed: 807795, IPC: 0.0806987
18479162241000: Event_284: system.switch_cpus2 progress event, total committed:139235900, progress insts committed: 822570, IPC: 0.0821747
18479162241000: Event_285: system.switch_cpus3 progress event, total committed:140241740, progress insts committed: 807120, IPC: 0.0806313
18482495574333: Event_285: system.switch_cpus3 progress event, total committed:141079580, progress insts committed: 837840, IPC: 0.0837002
18482495574333: Event_284: system.switch_cpus2 progress event, total committed:140070020, progress insts committed: 834120, IPC: 0.0833286
18482495574333: Event_283: system.switch_cpus1 progress event, total committed:140908280, progress insts committed: 832155, IPC: 0.0831323
18482495574333: Event_282: system.switch_cpus0 progress event, total committed:139864293, progress insts committed: 837210, IPC: 0.0836373
18485828907666: Event_282: system.switch_cpus0 progress event, total committed:140707458, progress insts committed: 843165, IPC: 0.0842322
18485828907666: Event_283: system.switch_cpus1 progress event, total committed:141778475, progress insts committed: 870195, IPC: 0.0869325
18485828907666: Event_284: system.switch_cpus2 progress event, total committed:140917595, progress insts committed: 847575, IPC: 0.0846727
18485828907666: Event_285: system.switch_cpus3 progress event, total committed:141955115, progress insts committed: 875535, IPC: 0.0874659
18489162240999: Event_285: system.switch_cpus3 progress event, total committed:142840775, progress insts committed: 885660, IPC: 0.0884774
18489162240999: Event_284: system.switch_cpus2 progress event, total committed:141786755, progress insts committed: 869160, IPC: 0.0868291
18489162240999: Event_283: system.switch_cpus1 progress event, total committed:142664180, progress insts committed: 885705, IPC: 0.0884819
18489162240999: Event_282: system.switch_cpus0 progress event, total committed:141570348, progress insts committed: 862890, IPC: 0.0862027
18492495574332: Event_282: system.switch_cpus0 progress event, total committed:142454523, progress insts committed: 884175, IPC: 0.0883291
18492495574332: Event_283: system.switch_cpus1 progress event, total committed:143550350, progress insts committed: 886170, IPC: 0.0885284
18492495574332: Event_284: system.switch_cpus2 progress event, total committed:142672940, progress insts committed: 886185, IPC: 0.0885299
18492495574332: Event_285: system.switch_cpus3 progress event, total committed:143726300, progress insts committed: 885525, IPC: 0.0884639
18495828907665: Event_285: system.switch_cpus3 progress event, total committed:144628700, progress insts committed: 902400, IPC: 0.0901498
18495828907665: Event_284: system.switch_cpus2 progress event, total committed:143580230, progress insts committed: 907290, IPC: 0.0906383
18495828907665: Event_283: system.switch_cpus1 progress event, total committed:144451040, progress insts committed: 900690, IPC: 0.0899789
18495828907665: Event_282: system.switch_cpus0 progress event, total committed:143362803, progress insts committed: 908280, IPC: 0.0907372
18499162240998: Event_282: system.switch_cpus0 progress event, total committed:144267258, progress insts committed: 904455, IPC: 0.0903551
18499162240998: Event_283: system.switch_cpus1 progress event, total committed:145363460, progress insts committed: 912420, IPC: 0.0911508
18499162240998: Event_284: system.switch_cpus2 progress event, total committed:144486380, progress insts committed: 906150, IPC: 0.0905244
18499162240998: Event_285: system.switch_cpus3 progress event, total committed:145541255, progress insts committed: 912555, IPC: 0.0911642
18502495574331: Event_285: system.switch_cpus3 progress event, total committed:146103837, progress insts committed: 562582, IPC: 0.0562019
18502495574331: Event_284: system.switch_cpus2 progress event, total committed:145747355, progress insts committed: 1260975, IPC: 0.125971
18502495574331: Event_283: system.switch_cpus1 progress event, total committed:146064963, progress insts committed: 701503, IPC: 0.0700801
18502495574331: Event_282: system.switch_cpus0 progress event, total committed:145526538, progress insts committed: 1259280, IPC: 0.125802
18505828907664: Event_282: system.switch_cpus0 progress event, total committed:146367985, progress insts committed: 841447, IPC: 0.0840606
18505828907664: Event_283: system.switch_cpus1 progress event, total committed:146591346, progress insts committed: 526383, IPC: 0.0525857
18505828907664: Event_284: system.switch_cpus2 progress event, total committed:146410671, progress insts committed: 663316, IPC: 0.0662653
18505828907664: Event_285: system.switch_cpus3 progress event, total committed:146630220, progress insts committed: 526383, IPC: 0.0525857
18509162240997: Event_285: system.switch_cpus3 progress event, total committed:147137826, progress insts committed: 507606, IPC: 0.0507098
18509162240997: Event_284: system.switch_cpus2 progress event, total committed:146918277, progress insts committed: 507606, IPC: 0.0507098
18509162240997: Event_283: system.switch_cpus1 progress event, total committed:147098952, progress insts committed: 507606, IPC: 0.0507098
18509162240997: Event_282: system.switch_cpus0 progress event, total committed:146875591, progress insts committed: 507606, IPC: 0.0507098
18512495574330: Event_282: system.switch_cpus0 progress event, total committed:147383263, progress insts committed: 507672, IPC: 0.0507164
18512495574330: Event_283: system.switch_cpus1 progress event, total committed:147606591, progress insts committed: 507639, IPC: 0.0507131
18512495574330: Event_284: system.switch_cpus2 progress event, total committed:147425916, progress insts committed: 507639, IPC: 0.0507131
18512495574330: Event_285: system.switch_cpus3 progress event, total committed:147645480, progress insts committed: 507654, IPC: 0.0507146
18515828907663: Event_285: system.switch_cpus3 progress event, total committed:149183781, progress insts committed: 1538301, IPC: 0.153676
18515828907663: Event_284: system.switch_cpus2 progress event, total committed:147972637, progress insts committed: 546721, IPC: 0.0546174
18515828907663: Event_283: system.switch_cpus1 progress event, total committed:148967739, progress insts committed: 1361148, IPC: 0.135979
18515828907663: Event_282: system.switch_cpus0 progress event, total committed:147762400, progress insts committed: 379137, IPC: 0.0378758
18519162240996: Event_282: system.switch_cpus0 progress event, total committed:149059982, progress insts committed: 1297582, IPC: 0.129628
18519162240996: Event_283: system.switch_cpus1 progress event, total committed:150278279, progress insts committed: 1310540, IPC: 0.130923
18519162240996: Event_284: system.switch_cpus2 progress event, total committed:149283067, progress insts committed: 1310430, IPC: 0.130912
18519162240996: Event_285: system.switch_cpus3 progress event, total committed:150494299, progress insts committed: 1310518, IPC: 0.130921
18522495574329: Event_285: system.switch_cpus3 progress event, total committed:151858761, progress insts committed: 1364462, IPC: 00.13631
18522495574329: Event_284: system.switch_cpus2 progress event, total committed:150647497, progress insts committed: 1364430, IPC: 0.136307
18522495574329: Event_283: system.switch_cpus1 progress event, total committed:151642741, progress insts committed: 1364462, IPC: 00.13631
18522495574329: Event_282: system.switch_cpus0 progress event, total committed:150424444, progress insts committed: 1364462, IPC: 00.13631
18525828907662: Event_282: system.switch_cpus0 progress event, total committed:151669636, progress insts committed: 1245192, IPC: 0.124395
18525828907662: Event_283: system.switch_cpus1 progress event, total committed:152771778, progress insts committed: 1129037, IPC: 0.112791
18525828907662: Event_284: system.switch_cpus2 progress event, total committed:151892743, progress insts committed: 1245246, IPC: 000.1244
18525828907662: Event_285: system.switch_cpus3 progress event, total committed:152957718, progress insts committed: 1098957, IPC: 0.109786
18529162240995: Event_285: system.switch_cpus3 progress event, total committed:153858168, progress insts committed: 900450, IPC: 0.089955
18529162240995: Event_284: system.switch_cpus2 progress event, total committed:152816223, progress insts committed: 923480, IPC: 0.0922557
18529162240995: Event_283: system.switch_cpus1 progress event, total committed:153672408, progress insts committed: 900630, IPC: 0.0899729
18529162240995: Event_282: system.switch_cpus0 progress event, total committed:152624746, progress insts committed: 955110, IPC: 0.0954155
18532495574328: Event_282: system.switch_cpus0 progress event, total committed:153494446, progress insts committed: 869700, IPC: 0.086883
18532495574328: Event_283: system.switch_cpus1 progress event, total committed:154542168, progress insts committed: 869760, IPC: 0.086889
18532495574328: Event_284: system.switch_cpus2 progress event, total committed:153685863, progress insts committed: 869640, IPC: 0.086877
18532495574328: Event_285: system.switch_cpus3 progress event, total committed:154727763, progress insts committed: 869595, IPC: 0.0868725
18535828907661: Event_285: system.switch_cpus3 progress event, total committed:155626008, progress insts committed: 898245, IPC: 0.0897347
18535828907661: Event_284: system.switch_cpus2 progress event, total committed:154584018, progress insts committed: 898155, IPC: 0.0897257
18535828907661: Event_283: system.switch_cpus1 progress event, total committed:155440143, progress insts committed: 897975, IPC: 0.0897077
18535828907661: Event_282: system.switch_cpus0 progress event, total committed:154392631, progress insts committed: 898185, IPC: 0.0897287
18539162240994: Event_282: system.switch_cpus0 progress event, total committed:155295166, progress insts committed: 902535, IPC: 0.0901632
18539162240994: Event_283: system.switch_cpus1 progress event, total committed:156342738, progress insts committed: 902595, IPC: 0.0901692
18539162240994: Event_284: system.switch_cpus2 progress event, total committed:155486463, progress insts committed: 902445, IPC: 0.0901543
18539162240994: Event_285: system.switch_cpus3 progress event, total committed:156528543, progress insts committed: 902535, IPC: 0.0901632
18542495574327: Event_285: system.switch_cpus3 progress event, total committed:157427088, progress insts committed: 898545, IPC: 0.0897646
18542495574327: Event_284: system.switch_cpus2 progress event, total committed:156385008, progress insts committed: 898545, IPC: 0.0897646
18542495574327: Event_283: system.switch_cpus1 progress event, total committed:157241598, progress insts committed: 898860, IPC: 0.0897961
18542495574327: Event_282: system.switch_cpus0 progress event, total committed:156193726, progress insts committed: 898560, IPC: 0.0897661
18545828907660: Event_282: system.switch_cpus0 progress event, total committed:157100971, progress insts committed: 907245, IPC: 0.0906338
18545828907660: Event_283: system.switch_cpus1 progress event, total committed:158148768, progress insts committed: 907170, IPC: 0.0906263
18545828907660: Event_284: system.switch_cpus2 progress event, total committed:157292208, progress insts committed: 907200, IPC: 0.0906293
18545828907660: Event_285: system.switch_cpus3 progress event, total committed:158334468, progress insts committed: 907380, IPC: 0.0906473
18549162240993: Event_285: system.switch_cpus3 progress event, total committed:158921161, progress insts committed: 586693, IPC: 0.0586106
18549162240993: Event_284: system.switch_cpus2 progress event, total committed:158488188, progress insts committed: 1195980, IPC: 0.119478
18549162240993: Event_283: system.switch_cpus1 progress event, total committed:158880736, progress insts committed: 731968, IPC: 0.0731236
18549162240993: Event_282: system.switch_cpus0 progress event, total committed:158296861, progress insts committed: 1195890, IPC: 0.119469
18552495574326: Event_282: system.switch_cpus0 progress event, total committed:159176366, progress insts committed: 879505, IPC: 0.0878625
18552495574326: Event_283: system.switch_cpus1 progress event, total committed:159387322, progress insts committed: 506586, IPC: 0.0506079
18552495574326: Event_284: system.switch_cpus2 progress event, total committed:159212422, progress insts committed: 724234, IPC: 0.072351
18552495574326: Event_285: system.switch_cpus3 progress event, total committed:159427777, progress insts committed: 506616, IPC: 0.0506109
18555828907659: Event_285: system.switch_cpus3 progress event, total committed:159944953, progress insts committed: 517176, IPC: 0.0516659
18555828907659: Event_284: system.switch_cpus2 progress event, total committed:159729628, progress insts committed: 517206, IPC: 0.0516689
18555828907659: Event_283: system.switch_cpus1 progress event, total committed:159904528, progress insts committed: 517206, IPC: 0.0516689
18555828907659: Event_282: system.switch_cpus0 progress event, total committed:159693575, progress insts committed: 517209, IPC: 0.0516692
18559162240992: Event_282: system.switch_cpus0 progress event, total committed:160193924, progress insts committed: 500349, IPC: 0.0499849
18559162240992: Event_283: system.switch_cpus1 progress event, total committed:160404901, progress insts committed: 500373, IPC: 0.0499873
18559162240992: Event_284: system.switch_cpus2 progress event, total committed:160229977, progress insts committed: 500349, IPC: 0.0499849
18559162240992: Event_285: system.switch_cpus3 progress event, total committed:160445332, progress insts committed: 500379, IPC: 0.0499879
18562495574325: Event_285: system.switch_cpus3 progress event, total committed:162060520, progress insts committed: 1615188, IPC: 0.161357
18562495574325: Event_284: system.switch_cpus2 progress event, total committed:161012436, progress insts committed: 782459, IPC: 0.0781677
18562495574325: Event_283: system.switch_cpus1 progress event, total committed:161848440, progress insts committed: 1443539, IPC: 00.14421
18562495574325: Event_282: system.switch_cpus0 progress event, total committed:160843628, progress insts committed: 649704, IPC: 0.0649054
18565828907658: Event_282: system.switch_cpus0 progress event, total committed:162757848, progress insts committed: 1914220, IPC: 0.191231
18565828907658: Event_283: system.switch_cpus1 progress event, total committed:163759545, progress insts committed: 1911105, IPC: 0.190919
18565828907658: Event_284: system.switch_cpus2 progress event, total committed:162933480, progress insts committed: 1921044, IPC: 0.191912
18565828907658: Event_285: system.switch_cpus3 progress event, total committed:163977156, progress insts committed: 1916636, IPC: 0.191472
18569162240991: Event_285: system.switch_cpus3 progress event, total committed:165924490, progress insts committed: 1947334, IPC: 0.194539
18569162240991: Event_284: system.switch_cpus2 progress event, total committed:164880036, progress insts committed: 1946556, IPC: 0.194461
18569162240991: Event_283: system.switch_cpus1 progress event, total committed:165680396, progress insts committed: 1920851, IPC: 0.191893
18569162240991: Event_282: system.switch_cpus0 progress event, total committed:164691699, progress insts committed: 1933851, IPC: 0.193192
18572495574324: Event_282: system.switch_cpus0 progress event, total committed:166624953, progress insts committed: 1933254, IPC: 0.193132
18572495574324: Event_283: system.switch_cpus1 progress event, total committed:167625310, progress insts committed: 1944914, IPC: 0.194297
18572495574324: Event_284: system.switch_cpus2 progress event, total committed:166820605, progress insts committed: 1940569, IPC: 0.193863
18572495574324: Event_285: system.switch_cpus3 progress event, total committed:167833595, progress insts committed: 1909105, IPC: 00.19072
18575828907657: Event_285: system.switch_cpus3 progress event, total committed:169769096, progress insts committed: 1935501, IPC: 0.193357
18575828907657: Event_284: system.switch_cpus2 progress event, total committed:168764030, progress insts committed: 1943425, IPC: 0.194148
18575828907657: Event_283: system.switch_cpus1 progress event, total committed:169576985, progress insts committed: 1951675, IPC: 0.194972
18575828907657: Event_282: system.switch_cpus0 progress event, total committed:168583554, progress insts committed: 1958601, IPC: 0.195664
18579162240990: Event_282: system.switch_cpus0 progress event, total committed:170510259, progress insts committed: 1926705, IPC: 0.192478
18579162240990: Event_283: system.switch_cpus1 progress event, total committed:171508970, progress insts committed: 1931985, IPC: 0.193005
18579162240990: Event_284: system.switch_cpus2 progress event, total committed:170696620, progress insts committed: 1932590, IPC: 0.193066
18579162240990: Event_285: system.switch_cpus3 progress event, total committed:171672921, progress insts committed: 1903825, IPC: 0.190192
18582495574323: Event_285: system.switch_cpus3 progress event, total committed:173560030, progress insts committed: 1887109, IPC: 0.188522
18582495574323: Event_284: system.switch_cpus2 progress event, total committed:172585980, progress insts committed: 1889360, IPC: 0.188747
18582495574323: Event_283: system.switch_cpus1 progress event, total committed:173405755, progress insts committed: 1896785, IPC: 0.189489
18582495574323: Event_282: system.switch_cpus0 progress event, total committed:172383664, progress insts committed: 1873405, IPC: 0.187153
18585828907656: Event_282: system.switch_cpus0 progress event, total committed:175979247, progress insts committed: 3595583, IPC: 0.359199
18585828907656: Event_283: system.switch_cpus1 progress event, total committed:177787043, progress insts committed: 4381288, IPC: 0.437691
18585828907656: Event_284: system.switch_cpus2 progress event, total committed:176446234, progress insts committed: 3860254, IPC: 0.385639
18585828907656: Event_285: system.switch_cpus3 progress event, total committed:178082776, progress insts committed: 4522746, IPC: 0.451822
18589162240989: Event_285: system.switch_cpus3 progress event, total committed:182694634, progress insts committed: 4611858, IPC: 0.460725
18589162240989: Event_284: system.switch_cpus2 progress event, total committed:181041040, progress insts committed: 4594806, IPC: 0.459021
18589162240989: Event_283: system.switch_cpus1 progress event, total committed:182395247, progress insts committed: 4608204, IPC: 00.46036
18589162240989: Event_282: system.switch_cpus0 progress event, total committed:180595469, progress insts committed: 4616222, IPC: 0.461161
18592495574322: Event_282: system.switch_cpus0 progress event, total committed:185332566, progress insts committed: 4737097, IPC: 0.473236
18592495574322: Event_283: system.switch_cpus1 progress event, total committed:187138719, progress insts committed: 4743472, IPC: 0.473873
18592495574322: Event_284: system.switch_cpus2 progress event, total committed:185774997, progress insts committed: 4733957, IPC: 0.472922
18592495574322: Event_285: system.switch_cpus3 progress event, total committed:187449799, progress insts committed: 4755165, IPC: 0.475041
18595828907655: Event_285: system.switch_cpus3 progress event, total committed:192235139, progress insts committed: 4785340, IPC: 0.478055
18595828907655: Event_284: system.switch_cpus2 progress event, total committed:190538933, progress insts committed: 4763936, IPC: 0.475917
18595828907655: Event_283: system.switch_cpus1 progress event, total committed:191913910, progress insts committed: 4775191, IPC: 0.477042
18595828907655: Event_282: system.switch_cpus0 progress event, total committed:190104786, progress insts committed: 4772220, IPC: 0.476745
18599162240988: Event_282: system.switch_cpus0 progress event, total committed:194643149, progress insts committed: 4538363, IPC: 0.453382
18599162240988: Event_283: system.switch_cpus1 progress event, total committed:195684366, progress insts committed: 3770456, IPC: 0.376669
18599162240988: Event_284: system.switch_cpus2 progress event, total committed:194883456, progress insts committed: 4344523, IPC: 0.434018
18599162240988: Event_285: system.switch_cpus3 progress event, total committed:195875821, progress insts committed: 3640682, IPC: 0.363704
18602495574321: Event_285: system.switch_cpus3 progress event, total committed:197848667, progress insts committed: 1972846, IPC: 0.197087
18602495574321: Event_284: system.switch_cpus2 progress event, total committed:196829957, progress insts committed: 1946501, IPC: 0.194455
18602495574321: Event_283: system.switch_cpus1 progress event, total committed:197648141, progress insts committed: 1963775, IPC: 0.196181
18602495574321: Event_282: system.switch_cpus0 progress event, total committed:196602959, progress insts committed: 1959810, IPC: 0.195785
18605828907654: Event_282: system.switch_cpus0 progress event, total committed:198440399, progress insts committed: 1837440, IPC: 00.18356
18605828907654: Event_283: system.switch_cpus1 progress event, total committed:199471611, progress insts committed: 1823470, IPC: 0.182165
18605828907654: Event_284: system.switch_cpus2 progress event, total committed:198664156, progress insts committed: 1834199, IPC: 0.183236
18605828907654: Event_285: system.switch_cpus3 progress event, total committed:199680277, progress insts committed: 1831610, IPC: 0.182978
18609162240987: Event_285: system.switch_cpus3 progress event, total committed:201522117, progress insts committed: 1841840, IPC: 0000.184
18609162240987: Event_284: system.switch_cpus2 progress event, total committed:200497793, progress insts committed: 1833637, IPC: 00.18318
18609162240987: Event_283: system.switch_cpus1 progress event, total committed:201303936, progress insts committed: 1832325, IPC: 0.183049
18609162240987: Event_282: system.switch_cpus0 progress event, total committed:200285869, progress insts committed: 1845470, IPC: 0.184362
18612495574320: Event_282: system.switch_cpus0 progress event, total committed:202079914, progress insts committed: 1794045, IPC: 0.179225
18612495574320: Event_283: system.switch_cpus1 progress event, total committed:203104031, progress insts committed: 1800095, IPC: 0.179829
18612495574320: Event_284: system.switch_cpus2 progress event, total committed:202263246, progress insts committed: 1765453, IPC: 0.176369
18612495574320: Event_285: system.switch_cpus3 progress event, total committed:203330513, progress insts committed: 1808396, IPC: 0.180659
18615828907653: Event_285: system.switch_cpus3 progress event, total committed:205141726, progress insts committed: 1811213, IPC: 00.18094
18615828907653: Event_284: system.switch_cpus2 progress event, total committed:204078191, progress insts committed: 1814945, IPC: 0.181313
18615828907653: Event_283: system.switch_cpus1 progress event, total committed:204901871, progress insts committed: 1797840, IPC: 0.179604
18615828907653: Event_282: system.switch_cpus0 progress event, total committed:203859655, progress insts committed: 1779741, IPC: 0.177796
18619162240986: Event_282: system.switch_cpus0 progress event, total committed:205667674, progress insts committed: 1808019, IPC: 0.180621
18619162240986: Event_283: system.switch_cpus1 progress event, total committed:206739802, progress insts committed: 1837931, IPC: 0.183609
18619162240986: Event_284: system.switch_cpus2 progress event, total committed:205889993, progress insts committed: 1811802, IPC: 0.180999
18619162240986: Event_285: system.switch_cpus3 progress event, total committed:206970091, progress insts committed: 1828365, IPC: 0.182654
18622495574319: Event_285: system.switch_cpus3 progress event, total committed:210840176, progress insts committed: 3870085, IPC: 0.386621
18622495574319: Event_284: system.switch_cpus2 progress event, total committed:207891836, progress insts committed: 2001843, IPC: 0.199984
18622495574319: Event_283: system.switch_cpus1 progress event, total committed:210357792, progress insts committed: 3617990, IPC: 0.361437
18622495574319: Event_282: system.switch_cpus0 progress event, total committed:207619294, progress insts committed: 1951620, IPC: 0.194967
18625828907652: Event_282: system.switch_cpus0 progress event, total committed:212897902, progress insts committed: 5278608, IPC: 0.527333
18625828907652: Event_283: system.switch_cpus1 progress event, total committed:214700832, progress insts committed: 4343040, IPC: 00.43387
18625828907652: Event_284: system.switch_cpus2 progress event, total committed:213399800, progress insts committed: 5507964, IPC: 0.550246
18625828907652: Event_285: system.switch_cpus3 progress event, total committed:215176913, progress insts committed: 4336737, IPC: 00.43324
18629162240985: Event_285: system.switch_cpus3 progress event, total committed:219873870, progress insts committed: 4696957, IPC: 0.469226
18629162240985: Event_284: system.switch_cpus2 progress event, total committed:218074410, progress insts committed: 4674610, IPC: 0.466994
18629162240985: Event_283: system.switch_cpus1 progress event, total committed:219393702, progress insts committed: 4692870, IPC: 0.468818
18629162240985: Event_282: system.switch_cpus0 progress event, total committed:217584780, progress insts committed: 4686878, IPC: 0.468219
18632495574318: Event_282: system.switch_cpus0 progress event, total committed:222238767, progress insts committed: 4653987, IPC: 0.464933
18632495574318: Event_283: system.switch_cpus1 progress event, total committed:224060104, progress insts committed: 4666402, IPC: 0.466174
18632495574318: Event_284: system.switch_cpus2 progress event, total committed:222727240, progress insts committed: 4652830, IPC: 0.464818
18632495574318: Event_285: system.switch_cpus3 progress event, total committed:224387455, progress insts committed: 4513585, IPC: 0.450907
18635828907651: Event_285: system.switch_cpus3 progress event, total committed:226661375, progress insts committed: 2273920, IPC: 0.227165
18635828907651: Event_284: system.switch_cpus2 progress event, total committed:225476420, progress insts committed: 2749180, IPC: 0.274643
18635828907651: Event_283: system.switch_cpus1 progress event, total committed:226366192, progress insts committed: 2306088, IPC: 0.230378
18635828907651: Event_282: system.switch_cpus0 progress event, total committed:225159693, progress insts committed: 2920926, IPC: 0.291801
18639162240984: Event_282: system.switch_cpus0 progress event, total committed:227016273, progress insts committed: 1856580, IPC: 0.185472
18639162240984: Event_283: system.switch_cpus1 progress event, total committed:228246526, progress insts committed: 1880334, IPC: 0.187845
18639162240984: Event_284: system.switch_cpus2 progress event, total committed:227343646, progress insts committed: 1867226, IPC: 0.186536
18639162240984: Event_285: system.switch_cpus3 progress event, total committed:228516030, progress insts committed: 1854655, IPC: 00.18528
18642495574317: Event_285: system.switch_cpus3 progress event, total committed:230437070, progress insts committed: 1921040, IPC: 0.191912
18642495574317: Event_284: system.switch_cpus2 progress event, total committed:229271726, progress insts committed: 1928080, IPC: 0.192615
18642495574317: Event_283: system.switch_cpus1 progress event, total committed:230156625, progress insts committed: 1910099, IPC: 0.190819
18642495574317: Event_282: system.switch_cpus0 progress event, total committed:228915313, progress insts committed: 1899040, IPC: 0.189714
18645828907650: Event_282: system.switch_cpus0 progress event, total committed:230805184, progress insts committed: 1889871, IPC: 0.188798
18645828907650: Event_283: system.switch_cpus1 progress event, total committed:232028000, progress insts committed: 1871375, IPC: 00.18695
18645828907650: Event_284: system.switch_cpus2 progress event, total committed:231158501, progress insts committed: 1886775, IPC: 0.188489
18645828907650: Event_285: system.switch_cpus3 progress event, total committed:232305200, progress insts committed: 1868130, IPC: 0.186626
18649162240983: Event_285: system.switch_cpus3 progress event, total committed:234233221, progress insts committed: 1928021, IPC: 0.192609
18649162240983: Event_284: system.switch_cpus2 progress event, total committed:233082130, progress insts committed: 1923629, IPC: 0.192171
18649162240983: Event_283: system.switch_cpus1 progress event, total committed:233979836, progress insts committed: 1951836, IPC: 0.194988
18649162240983: Event_282: system.switch_cpus0 progress event, total committed:232756018, progress insts committed: 1950834, IPC: 0.194888
18652495574316: Event_282: system.switch_cpus0 progress event, total committed:234559024, progress insts committed: 1803006, IPC: 00.18012
18652495574316: Event_283: system.switch_cpus1 progress event, total committed:235760080, progress insts committed: 1780244, IPC: 0.177846
18652495574316: Event_284: system.switch_cpus2 progress event, total committed:234850270, progress insts committed: 1768140, IPC: 0.176637
18652495574316: Event_285: system.switch_cpus3 progress event, total committed:236011870, progress insts committed: 1778649, IPC: 0.177687
[...]
18789162240969: Event_284: system.switch_cpus2 progress event, total committed:312770105, progress insts committed: 3941921, IPC: 0.393798
18789162240969: Event_283: system.switch_cpus1 progress event, total committed:314386824, progress insts committed: 4458801, IPC: 0.445434
18789162240969: Event_282: system.switch_cpus0 progress event, total committed:312272185, progress insts committed: 3722754, IPC: 0.371903
18792495574302: Event_282: system.switch_cpus0 progress event, total committed:317000007, progress insts committed: 4727822, IPC: 0.472309
18792495574302: Event_283: system.switch_cpus1 progress event, total committed:319109450, progress insts committed: 4722626, IPC: 00.47179
18792495574302: Event_284: system.switch_cpus2 progress event, total committed:317477570, progress insts committed: 4707465, IPC: 0.470276
18792495574302: Event_285: system.switch_cpus3 progress event, total committed:319976239, progress insts committed: 4727323, IPC: 00.47226
18795828907635: Event_285: system.switch_cpus3 progress event, total committed:320779210, progress insts committed: 802971, IPC: 0.0802168
18795828907635: Event_284: system.switch_cpus2 progress event, total committed:320687530, progress insts committed: 3209960, IPC: 0.320675
18795828907635: Event_283: system.switch_cpus1 progress event, total committed:320747791, progress insts committed: 1638341, IPC: 00.16367
18795828907635: Event_282: system.switch_cpus0 progress event, total committed:320670161, progress insts committed: 3670154, IPC: 0.366648
18799162240968: Event_282: system.switch_cpus0 progress event, total committed:320809643, progress insts committed: 139482, IPC: 0.0139343
18799162240968: Event_283: system.switch_cpus1 progress event, total committed:320888134, progress insts committed: 140343, IPC: 0.0140203
18799162240968: Event_284: system.switch_cpus2 progress event, total committed:320825797, progress insts committed: 138267, IPC: 0.0138129
18799162240968: Event_285: system.switch_cpus3 progress event, total committed:320922255, progress insts committed: 143045, IPC: 0.0142902
18802495574301: Event_285: system.switch_cpus3 progress event, total committed:321067059, progress insts committed: 144804, IPC: 0.0144659
18802495574301: Event_284: system.switch_cpus2 progress event, total committed:320965512, progress insts committed: 139715, IPC: 0.0139575
18802495574301: Event_283: system.switch_cpus1 progress event, total committed:321034476, progress insts committed: 146342, IPC: 0.0146196
18802495574301: Event_282: system.switch_cpus0 progress event, total committed:320946685, progress insts committed: 137042, IPC: 0.0136905
18805828907634: Event_282: system.switch_cpus0 progress event, total committed:321068149, progress insts committed: 121464, IPC: 0.0121343
18805828907634: Event_283: system.switch_cpus1 progress event, total committed:321156363, progress insts committed: 121887, IPC: 0.0121765
18805828907634: Event_284: system.switch_cpus2 progress event, total committed:321088299, progress insts committed: 122787, IPC: 0.0122664
18805828907634: Event_285: system.switch_cpus3 progress event, total committed:321706849, progress insts committed: 639790, IPC: 0.063915
18809162240967: Event_285: system.switch_cpus3 progress event, total committed:323077072, progress insts committed: 1370223, IPC: 0.136885
18809162240967: Event_284: system.switch_cpus2 progress event, total committed:321341449, progress insts committed: 253150, IPC: 0.0252897
18809162240967: Event_283: system.switch_cpus1 progress event, total committed:322486609, progress insts committed: 1330246, IPC: 0.132892
18809162240967: Event_282: system.switch_cpus0 progress event, total committed:321151381, progress insts committed: 83232, IPC: 0.00831488
18812495574300: Event_282: system.switch_cpus0 progress event, total committed:322223807, progress insts committed: 1072426, IPC: 0.107135
18812495574300: Event_283: system.switch_cpus1 progress event, total committed:323247781, progress insts committed: 761172, IPC: 0.0760411
18812495574300: Event_284: system.switch_cpus2 progress event, total committed:322532779, progress insts committed: 1191330, IPC: 0.119014
18812495574300: Event_285: system.switch_cpus3 progress event, total committed:323609061, progress insts committed: 531989, IPC: 0.0531457
18815828907633: Event_285: system.switch_cpus3 progress event, total committed:324682969, progress insts committed: 1073908, IPC: 0.107283
18815828907633: Event_284: system.switch_cpus2 progress event, total committed:323235601, progress insts committed: 702822, IPC: 0.0702119
18815828907633: Event_283: system.switch_cpus1 progress event, total committed:324261861, progress insts committed: 1014080, IPC: 0.101307
18815828907633: Event_282: system.switch_cpus0 progress event, total committed:323163179, progress insts committed: 939372, IPC: 0.0938433
18819162240966: Event_282: system.switch_cpus0 progress event, total committed:323968940, progress insts committed: 805761, IPC: 0.0804955
18819162240966: Event_283: system.switch_cpus1 progress event, total committed:325282764, progress insts committed: 1020903, IPC: 0.101988
18819162240966: Event_284: system.switch_cpus2 progress event, total committed:324260301, progress insts committed: 1024700, IPC: 0.102368
18819162240966: Event_285: system.switch_cpus3 progress event, total committed:325363878, progress insts committed: 680909, IPC: 0.0680228
18822495574299: Event_285: system.switch_cpus3 progress event, total committed:326528760, progress insts committed: 1164882, IPC: 0.116372
18822495574299: Event_284: system.switch_cpus2 progress event, total committed:325239798, progress insts committed: 979497, IPC: 0.0978518
18822495574299: Event_283: system.switch_cpus1 progress event, total committed:326125675, progress insts committed: 842911, IPC: 0.0842068
18822495574299: Event_282: system.switch_cpus0 progress event, total committed:325015459, progress insts committed: 1046519, IPC: 0.104547
18825828907632: Event_282: system.switch_cpus0 progress event, total committed:325856158, progress insts committed: 840699, IPC: 0.0839858
18825828907632: Event_283: system.switch_cpus1 progress event, total committed:327522108, progress insts committed: 1396433, IPC: 0.139504
18825828907632: Event_284: system.switch_cpus2 progress event, total committed:326214317, progress insts committed: 974519, IPC: 0.0973544
18825828907632: Event_285: system.switch_cpus3 progress event, total committed:327586656, progress insts committed: 1057896, IPC: 0.105684
18829162240965: Event_285: system.switch_cpus3 progress event, total committed:328704203, progress insts committed: 1117547, IPC: 0.111643
18829162240965: Event_284: system.switch_cpus2 progress event, total committed:327552729, progress insts committed: 1338412, IPC: 0.133707
18829162240965: Event_283: system.switch_cpus1 progress event, total committed:328476393, progress insts committed: 954285, IPC: 0.0953331
18829162240965: Event_282: system.switch_cpus0 progress event, total committed:327425833, progress insts committed: 1569675, IPC: 0.156811
18832495574298: Event_282: system.switch_cpus0 progress event, total committed:328749392, progress insts committed: 1323559, IPC: 0.132224
18832495574298: Event_283: system.switch_cpus1 progress event, total committed:330507649, progress insts committed: 2031256, IPC: 0.202922
18832495574298: Event_284: system.switch_cpus2 progress event, total committed:329109113, progress insts committed: 1556384, IPC: 0.155483
18832495574298: Event_285: system.switch_cpus3 progress event, total committed:330720393, progress insts committed: 2016190, IPC: 0.201417
18835828907631: Event_285: system.switch_cpus3 progress event, total committed:335076821, progress insts committed: 4356428, IPC: 0.435207
18835828907631: Event_284: system.switch_cpus2 progress event, total committed:331157863, progress insts committed: 2048750, IPC: 00.20467
18835828907631: Event_283: system.switch_cpus1 progress event, total committed:334666283, progress insts committed: 4158634, IPC: 0.415448
18835828907631: Event_282: system.switch_cpus0 progress event, total committed:330834391, progress insts committed: 2084999, IPC: 0.208291
18839162240964: Event_282: system.switch_cpus0 progress event, total committed:336095058, progress insts committed: 5260667, IPC: 0.525541
18839162240964: Event_283: system.switch_cpus1 progress event, total committed:337864141, progress insts committed: 3197858, IPC: 0.319466
18839162240964: Event_284: system.switch_cpus2 progress event, total committed:336532434, progress insts committed: 5374571, IPC: 00.53692
18839162240964: Event_285: system.switch_cpus3 progress event, total committed:338119785, progress insts committed: 3042964, IPC: 0.303992
18842495574297: Event_285: system.switch_cpus3 progress event, total committed:341440019, progress insts committed: 3320234, IPC: 0.331691
18842495574297: Event_284: system.switch_cpus2 progress event, total committed:338519859, progress insts committed: 1987425, IPC: 0.198544
18842495574297: Event_283: system.switch_cpus1 progress event, total committed:339875554, progress insts committed: 2011413, IPC: 00.20094
18842495574297: Event_282: system.switch_cpus0 progress event, total committed:338249902, progress insts committed: 2154844, IPC: 0.215269
18845828907630: Event_282: system.switch_cpus0 progress event, total committed:342041347, progress insts committed: 3791445, IPC: 0.378765
18845828907630: Event_283: system.switch_cpus1 progress event, total committed:344527176, progress insts committed: 4651622, IPC: 0.464697
18845828907630: Event_284: system.switch_cpus2 progress event, total committed:342539117, progress insts committed: 4019258, IPC: 0.401524
18845828907630: Event_285: system.switch_cpus3 progress event, total committed:344833306, progress insts committed: 3393287, IPC: 0.338989
18849162240963: Event_285: system.switch_cpus3 progress event, total committed:347113327, progress insts committed: 2280021, IPC: 0.227774
18849162240963: Event_284: system.switch_cpus2 progress event, total committed:345391112, progress insts committed: 2851995, IPC: 0.284914
18849162240963: Event_283: system.switch_cpus1 progress event, total committed:346823096, progress insts committed: 2295920, IPC: 0.229362
18849162240963: Event_282: system.switch_cpus0 progress event, total committed:345058950, progress insts committed: 3017603, IPC: 0.301459
18852495574296: Event_282: system.switch_cpus0 progress event, total committed:347166279, progress insts committed: 2107329, IPC: 0.210522
18852495574296: Event_283: system.switch_cpus1 progress event, total committed:350813333, progress insts committed: 3990237, IPC: 0.398625
18852495574296: Event_284: system.switch_cpus2 progress event, total committed:347510867, progress insts committed: 2119755, IPC: 0.211764
18852495574296: Event_285: system.switch_cpus3 progress event, total committed:351400616, progress insts committed: 4287289, IPC: 000.4283
18855828907629: Event_285: system.switch_cpus3 progress event, total committed:352977309, progress insts committed: 1576693, IPC: 0.157512
18855828907629: Event_284: system.switch_cpus2 progress event, total committed:352864392, progress insts committed: 5353525, IPC: 0.534817
18855828907629: Event_283: system.switch_cpus1 progress event, total committed:352960218, progress insts committed: 2146885, IPC: 0.214474
18855828907629: Event_282: system.switch_cpus0 progress event, total committed:352586919, progress insts committed: 5420640, IPC: 0.541522
18859162240962: Event_282: system.switch_cpus0 progress event, total committed:352991531, progress insts committed: 404612, IPC: 0.0404207
18859162240962: Event_283: system.switch_cpus1 progress event, total committed:353113594, progress insts committed: 153376, IPC: 0.0153223
18859162240962: Event_284: system.switch_cpus2 progress event, total committed:353016034, progress insts committed: 151642, IPC: 0.015149
18859162240962: Event_285: system.switch_cpus3 progress event, total committed:353292253, progress insts committed: 314944, IPC: 0.0314629
18862495574295: Event_285: system.switch_cpus3 progress event, total committed:354783646, progress insts committed: 1491393, IPC: 00.14899
18862495574295: Event_284: system.switch_cpus2 progress event, total committed:353115877, progress insts committed: 99843, IPC: 0.00997432
18862495574295: Event_283: system.switch_cpus1 progress event, total committed:354513765, progress insts committed: 1400171, IPC: 0.139877
18862495574295: Event_282: system.switch_cpus0 progress event, total committed:353090201, progress insts committed: 98670, IPC: 0.00985713
18865828907628: Event_282: system.switch_cpus0 progress event, total committed:353727076, progress insts committed: 636875, IPC: 0.0636238
18865828907628: Event_283: system.switch_cpus1 progress event, total committed:355454993, progress insts committed: 941228, IPC: 0.0940287
18865828907628: Event_284: system.switch_cpus2 progress event, total committed:354151869, progress insts committed: 1035992, IPC: 0.103496
18865828907628: Event_285: system.switch_cpus3 progress event, total committed:355641218, progress insts committed: 857572, IPC: 0.0856714
18869162240961: Event_285: system.switch_cpus3 progress event, total committed:356593684, progress insts committed: 952466, IPC: 0.0951514
18869162240961: Event_284: system.switch_cpus2 progress event, total committed:355192830, progress insts committed: 1040961, IPC: 0.103992
18869162240961: Event_283: system.switch_cpus1 progress event, total committed:356503814, progress insts committed: 1048821, IPC: 0.104777
18869162240961: Event_282: system.switch_cpus0 progress event, total committed:354784813, progress insts committed: 1057737, IPC: 0.105668
18872495574294: Event_282: system.switch_cpus0 progress event, total committed:355995876, progress insts committed: 1211063, IPC: 0.120985
18872495574294: Event_283: system.switch_cpus1 progress event, total committed:357915385, progress insts committed: 1411571, IPC: 0.141016
18872495574294: Event_284: system.switch_cpus2 progress event, total committed:356406686, progress insts committed: 1213856, IPC: 0.121264
18872495574294: Event_285: system.switch_cpus3 progress event, total committed:357998274, progress insts committed: 1404590, IPC: 0.140319
18875828907627: Event_285: system.switch_cpus3 progress event, total committed:361905427, progress insts committed: 3907153, IPC: 0.390325
18875828907627: Event_284: system.switch_cpus2 progress event, total committed:358336964, progress insts committed: 1930278, IPC: 0.192835
18875828907627: Event_283: system.switch_cpus1 progress event, total committed:361818641, progress insts committed: 3903256, IPC: 0.389935
18875828907627: Event_282: system.switch_cpus0 progress event, total committed:357890017, progress insts committed: 1894141, IPC: 0.189225
18879162240960: Event_282: system.switch_cpus0 progress event, total committed:361995779, progress insts committed: 4105762, IPC: 0.410166
18879162240960: Event_283: system.switch_cpus1 progress event, total committed:365696993, progress insts committed: 3878352, IPC: 0.387447
18879162240960: Event_284: system.switch_cpus2 progress event, total committed:362437171, progress insts committed: 4100207, IPC: 0.409611
18879162240960: Event_285: system.switch_cpus3 progress event, total committed:365798743, progress insts committed: 3893316, IPC: 0.388942
18882495574293: Event_285: system.switch_cpus3 progress event, total committed:369681759, progress insts committed: 3883016, IPC: 0.387913
18882495574293: Event_284: system.switch_cpus2 progress event, total committed:366306338, progress insts committed: 3869167, IPC: 00.38653
18882495574293: Event_283: system.switch_cpus1 progress event, total committed:369677892, progress insts committed: 3980899, IPC: 0.397692
18882495574293: Event_282: system.switch_cpus0 progress event, total committed:365870772, progress insts committed: 3874993, IPC: 0.387112
18885828907626: Event_282: system.switch_cpus0 progress event, total committed:369684934, progress insts committed: 3814162, IPC: 0.381035
18885828907626: Event_283: system.switch_cpus1 progress event, total committed:370122737, progress insts committed: 444845, IPC: 00.04444
18885828907626: Event_284: system.switch_cpus2 progress event, total committed:369709899, progress insts committed: 3403561, IPC: 0.340016
18885828907626: Event_285: system.switch_cpus3 progress event, total committed:370108847, progress insts committed: 427088, IPC: 0.0426661
18889162240959: Event_285: system.switch_cpus3 progress event, total committed:371645258, progress insts committed: 1536411, IPC: 0.153487
18889162240959: Event_284: system.switch_cpus2 progress event, total committed:369884836, progress insts committed: 174937, IPC: 0.0174762
18889162240959: Event_283: system.switch_cpus1 progress event, total committed:371651132, progress insts committed: 1528395, IPC: 0.152687
18889162240959: Event_282: system.switch_cpus0 progress event, total committed:369797297, progress insts committed: 112363, IPC: 0.0112251
18892495574292: Event_282: system.switch_cpus0 progress event, total committed:370863021, progress insts committed: 1065724, IPC: 0.106466
18892495574292: Event_283: system.switch_cpus1 progress event, total committed:374552614, progress insts committed: 2901482, IPC: 0.289858
18892495574292: Event_284: system.switch_cpus2 progress event, total committed:371308298, progress insts committed: 1423462, IPC: 0.142204
18892495574292: Event_285: system.switch_cpus3 progress event, total committed:374576873, progress insts committed: 2931615, IPC: 0.292868
18895828907625: Event_285: system.switch_cpus3 progress event, total committed:380811784, progress insts committed: 6234911, IPC: 0.622868
18895828907625: Event_284: system.switch_cpus2 progress event, total committed:376039626, progress insts committed: 4731328, IPC: 00.47266
18895828907625: Event_283: system.switch_cpus1 progress event, total committed:380820781, progress insts committed: 6268167, IPC: 00.62619
18895828907625: Event_282: system.switch_cpus0 progress event, total committed:374461462, progress insts committed: 3598441, IPC: 0.359484
18899162240958: Event_282: system.switch_cpus0 progress event, total committed:382520829, progress insts committed: 8059367, IPC: 0.805131
18899162240958: Event_283: system.switch_cpus1 progress event, total committed:405053693, progress insts committed: 24232912, IPC: 02.42087
18899162240958: Event_284: system.switch_cpus2 progress event, total committed:385257217, progress insts committed: 9217591, IPC: 0.920837
18899162240958: Event_285: system.switch_cpus3 progress event, total committed:404836991, progress insts committed: 24025207, IPC: 02.40012
18902495574291: Event_285: system.switch_cpus3 progress event, total committed:428114750, progress insts committed: 23277759, IPC: 02.32545
18902495574291: Event_284: system.switch_cpus2 progress event, total committed:411339492, progress insts committed: 26082275, IPC: 02.60562
18902495574291: Event_283: system.switch_cpus1 progress event, total committed:428293497, progress insts committed: 23239804, IPC: 02.32166
18902495574291: Event_282: system.switch_cpus0 progress event, total committed:407015098, progress insts committed: 24494269, IPC: 02.44698
18905828907624: Event_282: system.switch_cpus0 progress event, total committed:428859781, progress insts committed: 21844683, IPC: 02.18228
18905828907624: Event_283: system.switch_cpus1 progress event, total committed:446544409, progress insts committed: 18250912, IPC: 01.82327
18905828907624: Event_284: system.switch_cpus2 progress event, total committed:434028605, progress insts committed: 22689113, IPC: 02.26664
18905828907624: Event_285: system.switch_cpus3 progress event, total committed:446007203, progress insts committed: 17892453, IPC: 01.78746
Exiting @ tick 18905935467339 because a thread reached the max instruction count
