Command line:
./runscript_pride.sh blender RFM10.BR2.4C 4 2017 --rh_defense --rh_mitigation=RFM --rh_rfm_per_trefi=10 --rh_rfm_blast_radius=2 --rh_rfm_maxacts_per_trefi=79
Global frequency set at 1000000000000 ticks per second
RFM details - rfm_act_threshold: 7, blast_radius: 2, delay_per_rfm: 175000 ps. sample_rate: 0.125000
RH Defense config: RFM, Bus Delay: 0, rfms_per_trefi: 10, rfm_act_threshold: 7, blast_radius: 2,rfm_delay_per_act: 45000 ps.
DRAM config: RowsPerBank: 65536, BanksPerRank: 32, RanksPerChannel: 1
warn: Sockets disabled, not accepting gdb connections
warn: CoherentXBar system.cpu0.mmucache.mmubus has no snooping ports attached!
warn: CoherentXBar system.cpu1.mmucache.mmubus has no snooping ports attached!
warn: CoherentXBar system.cpu2.mmucache.mmubus has no snooping ports attached!
warn: CoherentXBar system.cpu3.mmucache.mmubus has no snooping ports attached!
warn: Checkpoints for file descriptors currently do not work.
warn: Checkpoints for file descriptors currently do not work.
warn: Checkpoints for file descriptors currently do not work.
warn: Checkpoints for file descriptors currently do not work.
gem5 Simulator System.  http://gem5.org
gem5 is copyrighted software; use the --copyright option for details.

gem5 version 20.1.0.5
gem5 compiled Jul 12 2024 12:42:38
gem5 started Jul 22 2024 18:29:37
gem5 executing on a07dda8b130c, pid 89785
command line: /home/user/PrIDE/performance/gem5/build/X86/gem5.opt --outdir=/home/user/PrIDE/performance/gem5/stats/pride_multiprogram_16GBmem_250Mn.SPEC2017.C4/RFM10.BR2.4C/blender /home/user/PrIDE/performance/gem5/configs/example/se_rq_spec_config_multicore.py --redirects /lib64=/home/utils/gcc-6.2.0/lib64 --benchmark=blender --benchmark_stdout=/home/user/PrIDE/performance/gem5/stats/pride_multiprogram_16GBmem_250Mn.SPEC2017.C4/RFM10.BR2.4C/blender/blender.out --benchmark_stderr=/home/user/PrIDE/performance/gem5/stats/pride_multiprogram_16GBmem_250Mn.SPEC2017.C4/RFM10.BR2.4C/blender/blender.err --spec-version=2017 --rh_defense --rh_mitigation=RFM --rh_rfm_per_trefi=10 --rh_rfm_blast_radius=2 --rh_rfm_maxacts_per_trefi=79 --num-cpus=4 --mem-size=16GB --mem-type=DDR5_2400_32x4 --mem-ranks=1 --checkpoint-dir=/home/user/PrIDE/performance/gem5/cpts/multiprogram_16GBmem_25Bn.SPEC2017.C4/blender-1-ref-x86 --checkpoint-restore=25000000000 --at-instruction --cpu-type DerivO3CPU --caches --l2cache --l1d_size=32kB --l1i_size=32kB --l2_size=256kB --l1d_assoc=8 --l1i_assoc=8 --l2_assoc=16 --maxinsts=250000000 --prog-interval=300Hz

info: Standard input is not a terminal, disabling listeners.
Benchmark- 0   blender
Selected benchmark
--> blender
CMD: ['/opt/spec2017/benchspec/CPU/526.blender_r/run/run_base_refrate_gem5_se-m64.0000/blender_r_base.gem5_se-m64', '/opt/spec2017/benchspec/CPU/526.blender_r/run/run_base_refrate_gem5_se-m64.0000/sh3_no_char.blend', '--render-output', 'sh3_no_char_', '--threads', '1', '-b', '-F', 'RAWTGA', '-s', '849', '-e', '849', '-a']
CWD: /opt/spec2017/benchspec/CPU/526.blender_r/run/run_base_refrate_gem5_se-m64.0000/
Process stdout file: /home/user/PrIDE/performance/gem5/stats/pride_multiprogram_16GBmem_250Mn.SPEC2017.C4/RFM10.BR2.4C/blender/blender.out_0
Process stderr file: /home/user/PrIDE/performance/gem5/stats/pride_multiprogram_16GBmem_250Mn.SPEC2017.C4/RFM10.BR2.4C/blender/blender.err_0
Benchmark- 1   blender
Selected benchmark
--> blender
CMD: ['/opt/spec2017/benchspec/CPU/526.blender_r/run/run_base_refrate_gem5_se-m64.0000/blender_r_base.gem5_se-m64', '/opt/spec2017/benchspec/CPU/526.blender_r/run/run_base_refrate_gem5_se-m64.0000/sh3_no_char.blend', '--render-output', 'sh3_no_char_', '--threads', '1', '-b', '-F', 'RAWTGA', '-s', '849', '-e', '849', '-a']
CWD: /opt/spec2017/benchspec/CPU/526.blender_r/run/run_base_refrate_gem5_se-m64.0000/
Process stdout file: /home/user/PrIDE/performance/gem5/stats/pride_multiprogram_16GBmem_250Mn.SPEC2017.C4/RFM10.BR2.4C/blender/blender.out_1
Process stderr file: /home/user/PrIDE/performance/gem5/stats/pride_multiprogram_16GBmem_250Mn.SPEC2017.C4/RFM10.BR2.4C/blender/blender.err_1
Benchmark- 2   blender
Selected benchmark
--> blender
CMD: ['/opt/spec2017/benchspec/CPU/526.blender_r/run/run_base_refrate_gem5_se-m64.0000/blender_r_base.gem5_se-m64', '/opt/spec2017/benchspec/CPU/526.blender_r/run/run_base_refrate_gem5_se-m64.0000/sh3_no_char.blend', '--render-output', 'sh3_no_char_', '--threads', '1', '-b', '-F', 'RAWTGA', '-s', '849', '-e', '849', '-a']
CWD: /opt/spec2017/benchspec/CPU/526.blender_r/run/run_base_refrate_gem5_se-m64.0000/
Process stdout file: /home/user/PrIDE/performance/gem5/stats/pride_multiprogram_16GBmem_250Mn.SPEC2017.C4/RFM10.BR2.4C/blender/blender.out_2
Process stderr file: /home/user/PrIDE/performance/gem5/stats/pride_multiprogram_16GBmem_250Mn.SPEC2017.C4/RFM10.BR2.4C/blender/blender.err_2
Benchmark- 3   blender
Selected benchmark
--> blender
CMD: ['/opt/spec2017/benchspec/CPU/526.blender_r/run/run_base_refrate_gem5_se-m64.0000/blender_r_base.gem5_se-m64', '/opt/spec2017/benchspec/CPU/526.blender_r/run/run_base_refrate_gem5_se-m64.0000/sh3_no_char.blend', '--render-output', 'sh3_no_char_', '--threads', '1', '-b', '-F', 'RAWTGA', '-s', '849', '-e', '849', '-a']
CWD: /opt/spec2017/benchspec/CPU/526.blender_r/run/run_base_refrate_gem5_se-m64.0000/
Process stdout file: /home/user/PrIDE/performance/gem5/stats/pride_multiprogram_16GBmem_250Mn.SPEC2017.C4/RFM10.BR2.4C/blender/blender.out_3
Process stderr file: /home/user/PrIDE/performance/gem5/stats/pride_multiprogram_16GBmem_250Mn.SPEC2017.C4/RFM10.BR2.4C/blender/blender.err_3
Workload-0: 
['/opt/spec2017/benchspec/CPU/526.blender_r/run/run_base_refrate_gem5_se-m64.0000/blender_r_base.gem5_se-m64', '/opt/spec2017/benchspec/CPU/526.blender_r/run/run_base_refrate_gem5_se-m64.0000/sh3_no_char.blend', '--render-output', 'sh3_no_char_', '--threads', '1', '-b', '-F', 'RAWTGA', '-s', '849', '-e', '849', '-a']
Workload-1: 
['/opt/spec2017/benchspec/CPU/526.blender_r/run/run_base_refrate_gem5_se-m64.0000/blender_r_base.gem5_se-m64', '/opt/spec2017/benchspec/CPU/526.blender_r/run/run_base_refrate_gem5_se-m64.0000/sh3_no_char.blend', '--render-output', 'sh3_no_char_', '--threads', '1', '-b', '-F', 'RAWTGA', '-s', '849', '-e', '849', '-a']
Workload-2: 
['/opt/spec2017/benchspec/CPU/526.blender_r/run/run_base_refrate_gem5_se-m64.0000/blender_r_base.gem5_se-m64', '/opt/spec2017/benchspec/CPU/526.blender_r/run/run_base_refrate_gem5_se-m64.0000/sh3_no_char.blend', '--render-output', 'sh3_no_char_', '--threads', '1', '-b', '-F', 'RAWTGA', '-s', '849', '-e', '849', '-a']
Workload-3: 
['/opt/spec2017/benchspec/CPU/526.blender_r/run/run_base_refrate_gem5_se-m64.0000/blender_r_base.gem5_se-m64', '/opt/spec2017/benchspec/CPU/526.blender_r/run/run_base_refrate_gem5_se-m64.0000/sh3_no_char.blend', '--render-output', 'sh3_no_char_', '--threads', '1', '-b', '-F', 'RAWTGA', '-s', '849', '-e', '849', '-a']
defense_enable:  True  detector:  MG  mitigation:  RFM  threshold:  800
mg_entries:  1700
rfm_maxacts_per_trefi:  79 rfm_per_trefi:  10 rfm_blast_radius:  2
Switch at curTick count:10000
warn: membus.master is deprecated. `master` is now called `mem_side_ports`
warn: No dot file generated. Please install pydot to generate the dot file and pdf.
info: Entering event queue @ 18219162244023.  Starting simulation...
info: Entering event queue @ 18219162254023.  Starting simulation...
warn: PowerState: Already in the requested power state, request ignored
Switched CPUS @ tick 18219162254023
switching cpus
**** REAL SIMULATION ****
info: Entering event queue @ 18219162255012.  Starting simulation...
18222495577356: Event_285: system.switch_cpus3 progress event, total committed:4921700, progress insts committed: 4921700, IPC: 0.491678
18222495577356: Event_284: system.switch_cpus2 progress event, total committed:4945551, progress insts committed: 4945551, IPC: 0.494061
18222495577356: Event_283: system.switch_cpus1 progress event, total committed:4921774, progress insts committed: 4921774, IPC: 0.491685
18222495577356: Event_282: system.switch_cpus0 progress event, total committed:4945434, progress insts committed: 4945434, IPC: 0.494049
18225828910689: Event_282: system.switch_cpus0 progress event, total committed:9953020, progress insts committed: 5007586, IPC: 0.500258
18225828910689: Event_283: system.switch_cpus1 progress event, total committed:9900266, progress insts committed: 4978492, IPC: 0.497351
18225828910689: Event_284: system.switch_cpus2 progress event, total committed:9953091, progress insts committed: 5007540, IPC: 0.500253
18225828910689: Event_285: system.switch_cpus3 progress event, total committed:9900281, progress insts committed: 4978581, IPC: 00.49736
18229162244022: Event_285: system.switch_cpus3 progress event, total committed:14718316, progress insts committed: 4818035, IPC: 0.481322
18229162244022: Event_284: system.switch_cpus2 progress event, total committed:14796834, progress insts committed: 4843743, IPC: 00.48389
18229162244022: Event_283: system.switch_cpus1 progress event, total committed:14718394, progress insts committed: 4818128, IPC: 0.481331
18229162244022: Event_282: system.switch_cpus0 progress event, total committed:14796951, progress insts committed: 4843931, IPC: 0.483909
18232495577355: Event_282: system.switch_cpus0 progress event, total committed:19599741, progress insts committed: 4802790, IPC: 0.479799
18232495577355: Event_283: system.switch_cpus1 progress event, total committed:19501346, progress insts committed: 4782952, IPC: 0.477817
18232495577355: Event_284: system.switch_cpus2 progress event, total committed:19599099, progress insts committed: 4802265, IPC: 0.479746
18232495577355: Event_285: system.switch_cpus3 progress event, total committed:19501361, progress insts committed: 4783045, IPC: 0.477826
18235828910688: Event_285: system.switch_cpus3 progress event, total committed:24343055, progress insts committed: 4841694, IPC: 0.483685
18235828910688: Event_284: system.switch_cpus2 progress event, total committed:24462963, progress insts committed: 4863864, IPC: 000.4859
18235828910688: Event_283: system.switch_cpus1 progress event, total committed:24342923, progress insts committed: 4841577, IPC: 0.483674
18235828910688: Event_282: system.switch_cpus0 progress event, total committed:24463140, progress insts committed: 4863399, IPC: 0.485854
18239162244021: Event_282: system.switch_cpus0 progress event, total committed:29345316, progress insts committed: 4882176, IPC: 0.487729
18239162244021: Event_283: system.switch_cpus1 progress event, total committed:29204330, progress insts committed: 4861407, IPC: 0.485655
18239162244021: Event_284: system.switch_cpus2 progress event, total committed:29345082, progress insts committed: 4882119, IPC: 0.487724
18239162244021: Event_285: system.switch_cpus3 progress event, total committed:29204345, progress insts committed: 4861290, IPC: 0.485643
18242495577354: Event_285: system.switch_cpus3 progress event, total committed:34218895, progress insts committed: 5014550, IPC: 0.500954
18242495577354: Event_284: system.switch_cpus2 progress event, total committed:34390700, progress insts committed: 5045618, IPC: 0.504057
18242495577354: Event_283: system.switch_cpus1 progress event, total committed:34218776, progress insts committed: 5014446, IPC: 0.500943
18242495577354: Event_282: system.switch_cpus0 progress event, total committed:34390364, progress insts committed: 5045048, IPC: 0000.504
18245828910687: Event_282: system.switch_cpus0 progress event, total committed:39585500, progress insts committed: 5195136, IPC: 0.518994
18245828910687: Event_283: system.switch_cpus1 progress event, total committed:39384206, progress insts committed: 5165430, IPC: 0.516026
18245828910687: Event_284: system.switch_cpus2 progress event, total committed:39585500, progress insts committed: 5194800, IPC: 0.518961
18245828910687: Event_285: system.switch_cpus3 progress event, total committed:39384107, progress insts committed: 5165212, IPC: 0.516005
18249162244020: Event_285: system.switch_cpus3 progress event, total committed:42410817, progress insts committed: 3026710, IPC: 0.302368
18249162244020: Event_284: system.switch_cpus2 progress event, total committed:42504816, progress insts committed: 2919316, IPC: 00.29164
18249162244020: Event_283: system.switch_cpus1 progress event, total committed:42411136, progress insts committed: 3026930, IPC: 00.30239
18249162244020: Event_282: system.switch_cpus0 progress event, total committed:42569381, progress insts committed: 2983881, IPC: 00.29809
18252495577353: Event_282: system.switch_cpus0 progress event, total committed:44541681, progress insts committed: 1972300, IPC: 0.197033
18252495577353: Event_283: system.switch_cpus1 progress event, total committed:44391352, progress insts committed: 1980216, IPC: 0.197824
18252495577353: Event_284: system.switch_cpus2 progress event, total committed:44463632, progress insts committed: 1958816, IPC: 0.195686
18252495577353: Event_285: system.switch_cpus3 progress event, total committed:44370911, progress insts committed: 1960094, IPC: 0.195813
18255828910686: Event_285: system.switch_cpus3 progress event, total committed:46346896, progress insts committed: 1975985, IPC: 0.197401
18255828910686: Event_284: system.switch_cpus2 progress event, total committed:46443577, progress insts committed: 1979945, IPC: 0.197797
18255828910686: Event_283: system.switch_cpus1 progress event, total committed:46359201, progress insts committed: 1967849, IPC: 0.196588
18255828910686: Event_282: system.switch_cpus0 progress event, total committed:46520031, progress insts committed: 1978350, IPC: 0.197637
18259162244019: Event_282: system.switch_cpus0 progress event, total committed:48480066, progress insts committed: 1960035, IPC: 0.195807
18259162244019: Event_283: system.switch_cpus1 progress event, total committed:48315056, progress insts committed: 1955855, IPC: 00.19539
18259162244019: Event_284: system.switch_cpus2 progress event, total committed:48349767, progress insts committed: 1906190, IPC: 0.190428
18259162244019: Event_285: system.switch_cpus3 progress event, total committed:48280531, progress insts committed: 1933635, IPC: 00.19317
18262495577352: Event_285: system.switch_cpus3 progress event, total committed:50267461, progress insts committed: 1986930, IPC: 0.198494
18262495577352: Event_284: system.switch_cpus2 progress event, total committed:50269381, progress insts committed: 1919614, IPC: 0.191769
18262495577352: Event_283: system.switch_cpus1 progress event, total committed:50260131, progress insts committed: 1945075, IPC: 0.194313
18262495577352: Event_282: system.switch_cpus0 progress event, total committed:50470567, progress insts committed: 1990501, IPC: 0.198851
18265828910685: Event_282: system.switch_cpus0 progress event, total committed:52429616, progress insts committed: 1959049, IPC: 0.195709
18265828910685: Event_283: system.switch_cpus1 progress event, total committed:52188706, progress insts committed: 1928575, IPC: 0.192665
18265828910685: Event_284: system.switch_cpus2 progress event, total committed:52234988, progress insts committed: 1965607, IPC: 0.196364
18265828910685: Event_285: system.switch_cpus3 progress event, total committed:52237231, progress insts committed: 1969770, IPC: 00.19678
18269162244018: Event_285: system.switch_cpus3 progress event, total committed:54176146, progress insts committed: 1938915, IPC: 0.193698
18269162244018: Event_284: system.switch_cpus2 progress event, total committed:54165746, progress insts committed: 1930758, IPC: 0.192883
18269162244018: Event_283: system.switch_cpus1 progress event, total committed:54099681, progress insts committed: 1910975, IPC: 0.190906
18269162244018: Event_282: system.switch_cpus0 progress event, total committed:54347796, progress insts committed: 1918180, IPC: 0.191626
18272495577351: Event_282: system.switch_cpus0 progress event, total committed:56288280, progress insts committed: 1940484, IPC: 0.193854
18272495577351: Event_283: system.switch_cpus1 progress event, total committed:56024626, progress insts committed: 1924945, IPC: 0.192302
18272495577351: Event_284: system.switch_cpus2 progress event, total committed:56128421, progress insts committed: 1962675, IPC: 0.196071
18272495577351: Event_285: system.switch_cpus3 progress event, total committed:56131121, progress insts committed: 1954975, IPC: 0.195302
18275828910684: Event_285: system.switch_cpus3 progress event, total committed:58051937, progress insts committed: 1920816, IPC: 00.19189
18275828910684: Event_284: system.switch_cpus2 progress event, total committed:58043847, progress insts committed: 1915426, IPC: 0.191351
18275828910684: Event_283: system.switch_cpus1 progress event, total committed:57907662, progress insts committed: 1883036, IPC: 0.188115
18275828910684: Event_282: system.switch_cpus0 progress event, total committed:58183331, progress insts committed: 1895051, IPC: 0.189316
18279162244017: Event_282: system.switch_cpus0 progress event, total committed:60143527, progress insts committed: 1960196, IPC: 0.195824
18279162244017: Event_283: system.switch_cpus1 progress event, total committed:59852241, progress insts committed: 1944579, IPC: 0.194263
18279162244017: Event_284: system.switch_cpus2 progress event, total committed:59978256, progress insts committed: 1934409, IPC: 0.193247
18279162244017: Event_285: system.switch_cpus3 progress event, total committed:59960767, progress insts committed: 1908830, IPC: 0.190692
18282495577350: Event_285: system.switch_cpus3 progress event, total committed:61866191, progress insts committed: 1905424, IPC: 0.190352
18282495577350: Event_284: system.switch_cpus2 progress event, total committed:61881311, progress insts committed: 1903055, IPC: 0.190115
18282495577350: Event_283: system.switch_cpus1 progress event, total committed:61784167, progress insts committed: 1931926, IPC: 0.192999
18282495577350: Event_282: system.switch_cpus0 progress event, total committed:62030543, progress insts committed: 1887016, IPC: 0.188513
18285828910683: Event_282: system.switch_cpus0 progress event, total committed:63973071, progress insts committed: 1942528, IPC: 0.194059
18285828910683: Event_283: system.switch_cpus1 progress event, total committed:63726661, progress insts committed: 1942494, IPC: 0.194055
18285828910683: Event_284: system.switch_cpus2 progress event, total committed:63811312, progress insts committed: 1930001, IPC: 0.192807
18285828910683: Event_285: system.switch_cpus3 progress event, total committed:63771061, progress insts committed: 1904870, IPC: 0.190297
18289162244016: Event_285: system.switch_cpus3 progress event, total committed:65653381, progress insts committed: 1882320, IPC: 0.188044
18289162244016: Event_284: system.switch_cpus2 progress event, total committed:65705956, progress insts committed: 1894644, IPC: 0.189275
18289162244016: Event_283: system.switch_cpus1 progress event, total committed:65620421, progress insts committed: 1893760, IPC: 0.189187
18289162244016: Event_282: system.switch_cpus0 progress event, total committed:65808032, progress insts committed: 1834961, IPC: 0.183313
18292495577349: Event_282: system.switch_cpus0 progress event, total committed:67725776, progress insts committed: 1917744, IPC: 0.191583
18292495577349: Event_283: system.switch_cpus1 progress event, total committed:67571707, progress insts committed: 1951286, IPC: 0.194933
18292495577349: Event_284: system.switch_cpus2 progress event, total committed:67652567, progress insts committed: 1946611, IPC: 0.194466
18292495577349: Event_285: system.switch_cpus3 progress event, total committed:67592736, progress insts committed: 1939355, IPC: 0.193742
18295828910682: Event_285: system.switch_cpus3 progress event, total committed:69589409, progress insts committed: 1996673, IPC: 0.199468
18295828910682: Event_284: system.switch_cpus2 progress event, total committed:69677121, progress insts committed: 2024554, IPC: 0.202253
18295828910682: Event_283: system.switch_cpus1 progress event, total committed:69601651, progress insts committed: 2029944, IPC: 0.202791
18295828910682: Event_282: system.switch_cpus0 progress event, total committed:69706235, progress insts committed: 1980459, IPC: 0.197848
18299162244015: Event_282: system.switch_cpus0 progress event, total committed:71656516, progress insts committed: 1950281, IPC: 0.194833
18299162244015: Event_283: system.switch_cpus1 progress event, total committed:71567076, progress insts committed: 1965425, IPC: 0.196346
18299162244015: Event_284: system.switch_cpus2 progress event, total committed:71637541, progress insts committed: 1960420, IPC: 0.195846
18299162244015: Event_285: system.switch_cpus3 progress event, total committed:71537556, progress insts committed: 1948147, IPC: 00.19462
18302495577348: Event_285: system.switch_cpus3 progress event, total committed:73497316, progress insts committed: 1959760, IPC: 00.19578
18302495577348: Event_284: system.switch_cpus2 progress event, total committed:73610992, progress insts committed: 1973451, IPC: 0.197148
18302495577348: Event_283: system.switch_cpus1 progress event, total committed:73552851, progress insts committed: 1985775, IPC: 0.198379
18302495577348: Event_282: system.switch_cpus0 progress event, total committed:73618146, progress insts committed: 1961630, IPC: 0.195967
18305828910681: Event_282: system.switch_cpus0 progress event, total committed:75599407, progress insts committed: 1981261, IPC: 0.197928
18305828910681: Event_283: system.switch_cpus1 progress event, total committed:75549846, progress insts committed: 1996995, IPC: 000.1995
18305828910681: Event_284: system.switch_cpus2 progress event, total committed:75592976, progress insts committed: 1981984, IPC: 0000.198
18305828910681: Event_285: system.switch_cpus3 progress event, total committed:75473297, progress insts committed: 1975981, IPC: 0.197401
18309162244014: Event_285: system.switch_cpus3 progress event, total committed:77481076, progress insts committed: 2007779, IPC: 0.200577
18309162244014: Event_284: system.switch_cpus2 progress event, total committed:77581057, progress insts committed: 1988081, IPC: 0.198609
18309162244014: Event_283: system.switch_cpus1 progress event, total committed:77562021, progress insts committed: 2012175, IPC: 0.201016
18309162244014: Event_282: system.switch_cpus0 progress event, total committed:77614497, progress insts committed: 2015090, IPC: 0.201307
18312495577347: Event_282: system.switch_cpus0 progress event, total committed:81696295, progress insts committed: 4081798, IPC: 0.407772
18312495577347: Event_283: system.switch_cpus1 progress event, total committed:81526693, progress insts committed: 3964672, IPC: 0.396071
18312495577347: Event_284: system.switch_cpus2 progress event, total committed:81604567, progress insts committed: 4023510, IPC: 0.401949
18312495577347: Event_285: system.switch_cpus3 progress event, total committed:81392988, progress insts committed: 3911912, IPC: 000.3908
18315828910680: Event_285: system.switch_cpus3 progress event, total committed:86152956, progress insts committed: 4759968, IPC: 0.475521
18315828910680: Event_284: system.switch_cpus2 progress event, total committed:86439826, progress insts committed: 4835259, IPC: 0.483042
18315828910680: Event_283: system.switch_cpus1 progress event, total committed:86301882, progress insts committed: 4775189, IPC: 0.477041
18315828910680: Event_282: system.switch_cpus0 progress event, total committed:86535649, progress insts committed: 4839354, IPC: 0.483451
18319162244013: Event_282: system.switch_cpus0 progress event, total committed:91593559, progress insts committed: 5057910, IPC: 0.505285
18319162244013: Event_283: system.switch_cpus1 progress event, total committed:91327568, progress insts committed: 5025686, IPC: 0.502066
18319162244013: Event_284: system.switch_cpus2 progress event, total committed:91490151, progress insts committed: 5050325, IPC: 0.504527
18319162244013: Event_285: system.switch_cpus3 progress event, total committed:91183790, progress insts committed: 5030834, IPC: 00.50258
18322495577346: Event_285: system.switch_cpus3 progress event, total committed:96165325, progress insts committed: 4981535, IPC: 0.497655
18322495577346: Event_284: system.switch_cpus2 progress event, total committed:96513817, progress insts committed: 5023666, IPC: 0.501864
18322495577346: Event_283: system.switch_cpus1 progress event, total committed:96312923, progress insts committed: 4985355, IPC: 0.498037
18322495577346: Event_282: system.switch_cpus0 progress event, total committed:96601393, progress insts committed: 5007834, IPC: 0.500283
18325828910679: Event_282: system.switch_cpus0 progress event, total committed:101594865, progress insts committed: 4993472, IPC: 0.498848
18325828910679: Event_283: system.switch_cpus1 progress event, total committed:101295418, progress insts committed: 4982495, IPC: 0.497751
18325828910679: Event_284: system.switch_cpus2 progress event, total committed:101514632, progress insts committed: 5000815, IPC: 0.499581
18325828910679: Event_285: system.switch_cpus3 progress event, total committed:101154803, progress insts committed: 4989478, IPC: 0.498449
18329162244012: Event_285: system.switch_cpus3 progress event, total committed:105974077, progress insts committed: 4819274, IPC: 0.481445
18329162244012: Event_284: system.switch_cpus2 progress event, total committed:106368477, progress insts committed: 4853845, IPC: 0.484899
18329162244012: Event_283: system.switch_cpus1 progress event, total committed:106109518, progress insts committed: 4814100, IPC: 0.480929
18329162244012: Event_282: system.switch_cpus0 progress event, total committed:106447627, progress insts committed: 4852762, IPC: 0.484791
18332495577345: Event_282: system.switch_cpus0 progress event, total committed:111311168, progress insts committed: 4863541, IPC: 0.485868
18332495577345: Event_283: system.switch_cpus1 progress event, total committed:110948995, progress insts committed: 4839477, IPC: 0.483464
18332495577345: Event_284: system.switch_cpus2 progress event, total committed:111230495, progress insts committed: 4862018, IPC: 0.485716
18332495577345: Event_285: system.switch_cpus3 progress event, total committed:110823820, progress insts committed: 4849743, IPC: 0.484489
18335828910678: Event_285: system.switch_cpus3 progress event, total committed:115668847, progress insts committed: 4845027, IPC: 0.484018
18335828910678: Event_284: system.switch_cpus2 progress event, total committed:116105594, progress insts committed: 4875099, IPC: 0.487022
18335828910678: Event_283: system.switch_cpus1 progress event, total committed:115800400, progress insts committed: 4851405, IPC: 0.484655
18335828910678: Event_282: system.switch_cpus0 progress event, total committed:116181116, progress insts committed: 4869948, IPC: 0.486508
18339162244011: Event_282: system.switch_cpus0 progress event, total committed:120316017, progress insts committed: 4134901, IPC: 0.413077
18339162244011: Event_283: system.switch_cpus1 progress event, total committed:120300714, progress insts committed: 4500314, IPC: 0.449581
18339162244011: Event_284: system.switch_cpus2 progress event, total committed:120312930, progress insts committed: 4207336, IPC: 0.420313
18339162244011: Event_285: system.switch_cpus3 progress event, total committed:120295185, progress insts committed: 4626338, IPC: 0.462171
18342495577344: Event_285: system.switch_cpus3 progress event, total committed:120455159, progress insts committed: 159974, IPC: 0.0159814
18342495577344: Event_284: system.switch_cpus2 progress event, total committed:120474087, progress insts committed: 161157, IPC: 0.0160996
18342495577344: Event_283: system.switch_cpus1 progress event, total committed:120460049, progress insts committed: 159335, IPC: 0.0159176
18342495577344: Event_282: system.switch_cpus0 progress event, total committed:120477525, progress insts committed: 161508, IPC: 0.0161346
18345828910677: Event_282: system.switch_cpus0 progress event, total committed:120611694, progress insts committed: 134169, IPC: 0.0134035
18345828910677: Event_283: system.switch_cpus1 progress event, total committed:120592826, progress insts committed: 132777, IPC: 0.0132644
18345828910677: Event_284: system.switch_cpus2 progress event, total committed:120609340, progress insts committed: 135253, IPC: 0.0135118
18345828910677: Event_285: system.switch_cpus3 progress event, total committed:120588152, progress insts committed: 132993, IPC: 0.013286
18349162244010: Event_285: system.switch_cpus3 progress event, total committed:120721592, progress insts committed: 133440, IPC: 0.0133307
18349162244010: Event_284: system.switch_cpus2 progress event, total committed:120744690, progress insts committed: 135350, IPC: 0.0135215
18349162244010: Event_283: system.switch_cpus1 progress event, total committed:120727037, progress insts committed: 134211, IPC: 0.0134077
18349162244010: Event_282: system.switch_cpus0 progress event, total committed:120746484, progress insts committed: 134790, IPC: 0.0134655
18352495577343: Event_282: system.switch_cpus0 progress event, total committed:120881194, progress insts committed: 134710, IPC: 0.0134575
18352495577343: Event_283: system.switch_cpus1 progress event, total committed:120859952, progress insts committed: 132915, IPC: 0.0132782
18352495577343: Event_284: system.switch_cpus2 progress event, total committed:120879534, progress insts committed: 134844, IPC: 0.0134709
18352495577343: Event_285: system.switch_cpus3 progress event, total committed:120853925, progress insts committed: 132333, IPC: 0.0132201
18355828910676: Event_285: system.switch_cpus3 progress event, total committed:120989123, progress insts committed: 135198, IPC: 0.0135063
18355828910676: Event_284: system.switch_cpus2 progress event, total committed:121015002, progress insts committed: 135468, IPC: 0.0135333
18355828910676: Event_283: system.switch_cpus1 progress event, total committed:120994289, progress insts committed: 134337, IPC: 0.0134203
18355828910676: Event_282: system.switch_cpus0 progress event, total committed:121017612, progress insts committed: 136418, IPC: 0.0136282
18359162244009: Event_282: system.switch_cpus0 progress event, total committed:121148409, progress insts committed: 130797, IPC: 0.0130666
18359162244009: Event_283: system.switch_cpus1 progress event, total committed:121124948, progress insts committed: 130659, IPC: 0.0130528
18359162244009: Event_284: system.switch_cpus2 progress event, total committed:121145821, progress insts committed: 130819, IPC: 0.0130688
18359162244009: Event_285: system.switch_cpus3 progress event, total committed:121120109, progress insts committed: 130986, IPC: 0.0130855
18362495577342: Event_285: system.switch_cpus3 progress event, total committed:121249931, progress insts committed: 129822, IPC: 0.0129692
18362495577342: Event_284: system.switch_cpus2 progress event, total committed:121279251, progress insts committed: 133430, IPC: 0.0133297
18362495577342: Event_283: system.switch_cpus1 progress event, total committed:121255382, progress insts committed: 130434, IPC: 0.0130304
18362495577342: Event_282: system.switch_cpus0 progress event, total committed:121281972, progress insts committed: 133563, IPC: 0.0133429
18365828910675: Event_282: system.switch_cpus0 progress event, total committed:121425631, progress insts committed: 143659, IPC: 0.0143515
18365828910675: Event_283: system.switch_cpus1 progress event, total committed:121391940, progress insts committed: 136558, IPC: 0.0136421
18365828910675: Event_284: system.switch_cpus2 progress event, total committed:121423213, progress insts committed: 143962, IPC: 0.0143818
18365828910675: Event_285: system.switch_cpus3 progress event, total committed:121385694, progress insts committed: 135763, IPC: 0.0135627
18369162244008: Event_285: system.switch_cpus3 progress event, total committed:121529250, progress insts committed: 143556, IPC: 0.0143412
18369162244008: Event_284: system.switch_cpus2 progress event, total committed:121566106, progress insts committed: 142893, IPC: 0.014275
18369162244008: Event_283: system.switch_cpus1 progress event, total committed:121535613, progress insts committed: 143673, IPC: 0.0143529
18369162244008: Event_282: system.switch_cpus0 progress event, total committed:121568362, progress insts committed: 142731, IPC: 0.0142588
18372495577341: Event_282: system.switch_cpus0 progress event, total committed:121714303, progress insts committed: 145941, IPC: 0.0145795
18372495577341: Event_283: system.switch_cpus1 progress event, total committed:121675170, progress insts committed: 139557, IPC: 0.0139417
18372495577341: Event_284: system.switch_cpus2 progress event, total committed:121711540, progress insts committed: 145434, IPC: 0.0145289
18372495577341: Event_285: system.switch_cpus3 progress event, total committed:121669692, progress insts committed: 140442, IPC: 0.0140302
18375828910674: Event_285: system.switch_cpus3 progress event, total committed:121810839, progress insts committed: 141147, IPC: 0.0141006
18375828910674: Event_284: system.switch_cpus2 progress event, total committed:121856476, progress insts committed: 144936, IPC: 0.0144791
18375828910674: Event_283: system.switch_cpus1 progress event, total committed:121817598, progress insts committed: 142428, IPC: 0.0142286
18375828910674: Event_282: system.switch_cpus0 progress event, total committed:121859608, progress insts committed: 145305, IPC: 0.014516
18379162244007: Event_282: system.switch_cpus0 progress event, total committed:122004472, progress insts committed: 144864, IPC: 0.0144719
18379162244007: Event_283: system.switch_cpus1 progress event, total committed:121960521, progress insts committed: 142923, IPC: 0.014278
18379162244007: Event_284: system.switch_cpus2 progress event, total committed:122001553, progress insts committed: 145077, IPC: 0.0144932
18379162244007: Event_285: system.switch_cpus3 progress event, total committed:121955064, progress insts committed: 144225, IPC: 0.0144081
18382495577340: Event_285: system.switch_cpus3 progress event, total committed:122097405, progress insts committed: 142341, IPC: 0.0142199
18382495577340: Event_284: system.switch_cpus2 progress event, total committed:122146171, progress insts committed: 144618, IPC: 0.0144473
18382495577340: Event_283: system.switch_cpus1 progress event, total committed:122103426, progress insts committed: 142905, IPC: 0.0142762
18382495577340: Event_282: system.switch_cpus0 progress event, total committed:122149285, progress insts committed: 144813, IPC: 0.0144668
18385828910673: Event_282: system.switch_cpus0 progress event, total committed:122293522, progress insts committed: 144237, IPC: 0.0144093
18385828910673: Event_283: system.switch_cpus1 progress event, total committed:122245464, progress insts committed: 142038, IPC: 0.0141896
18385828910673: Event_284: system.switch_cpus2 progress event, total committed:122290594, progress insts committed: 144423, IPC: 0.0144279
18385828910673: Event_285: system.switch_cpus3 progress event, total committed:122240226, progress insts committed: 142821, IPC: 0.0142678
18389162244006: Event_285: system.switch_cpus3 progress event, total committed:122382519, progress insts committed: 142293, IPC: 0.0142151
18389162244006: Event_284: system.switch_cpus2 progress event, total committed:122436322, progress insts committed: 145728, IPC: 0.0145582
18389162244006: Event_283: system.switch_cpus1 progress event, total committed:122387730, progress insts committed: 142266, IPC: 0.0142124
18389162244006: Event_282: system.switch_cpus0 progress event, total committed:122439241, progress insts committed: 145719, IPC: 0.0145573
18392495577339: Event_282: system.switch_cpus0 progress event, total committed:122584036, progress insts committed: 144795, IPC: 0.014465
18392495577339: Event_283: system.switch_cpus1 progress event, total committed:122532192, progress insts committed: 144462, IPC: 0.0144318
18392495577339: Event_284: system.switch_cpus2 progress event, total committed:122581150, progress insts committed: 144828, IPC: 0.0144683
18392495577339: Event_285: system.switch_cpus3 progress event, total committed:122526732, progress insts committed: 144213, IPC: 0.0144069
18395828910672: Event_285: system.switch_cpus3 progress event, total committed:122670228, progress insts committed: 143496, IPC: 0.0143353
18395828910672: Event_284: system.switch_cpus2 progress event, total committed:122728708, progress insts committed: 147558, IPC: 0.014741
18395828910672: Event_283: system.switch_cpus1 progress event, total committed:122676369, progress insts committed: 144177, IPC: 0.0144033
18395828910672: Event_282: system.switch_cpus0 progress event, total committed:122731312, progress insts committed: 147276, IPC: 0.0147129
18399162244005: Event_282: system.switch_cpus0 progress event, total committed:122877181, progress insts committed: 145869, IPC: 0.0145723
18399162244005: Event_283: system.switch_cpus1 progress event, total committed:122819985, progress insts committed: 143616, IPC: 0.0143472
18399162244005: Event_284: system.switch_cpus2 progress event, total committed:122874580, progress insts committed: 145872, IPC: 0.0145726
18399162244005: Event_285: system.switch_cpus3 progress event, total committed:122815143, progress insts committed: 144915, IPC: 0.014477
18402495577338: Event_285: system.switch_cpus3 progress event, total committed:122959203, progress insts committed: 144060, IPC: 0.0143916
18402495577338: Event_284: system.switch_cpus2 progress event, total committed:123021730, progress insts committed: 147150, IPC: 0.0147003
18402495577338: Event_283: system.switch_cpus1 progress event, total committed:122965050, progress insts committed: 145065, IPC: 0.014492
18402495577338: Event_282: system.switch_cpus0 progress event, total committed:123024601, progress insts committed: 147420, IPC: 0.0147273
18405828910671: Event_282: system.switch_cpus0 progress event, total committed:123171253, progress insts committed: 146652, IPC: 0.0146505
18405828910671: Event_283: system.switch_cpus1 progress event, total committed:123108846, progress insts committed: 143796, IPC: 0.0143652
18405828910671: Event_284: system.switch_cpus2 progress event, total committed:123168388, progress insts committed: 146658, IPC: 0.0146511
18405828910671: Event_285: system.switch_cpus3 progress event, total committed:123103038, progress insts committed: 143835, IPC: 0.0143691
18409162244004: Event_285: system.switch_cpus3 progress event, total committed:123243891, progress insts committed: 140853, IPC: 0.0140712
18409162244004: Event_284: system.switch_cpus2 progress event, total committed:123311658, progress insts committed: 143270, IPC: 0.0143127
18409162244004: Event_283: system.switch_cpus1 progress event, total committed:123248895, progress insts committed: 140049, IPC: 0.0139909
18409162244004: Event_282: system.switch_cpus0 progress event, total committed:123360153, progress insts committed: 188900, IPC: 0.0188711
18412495577337: Event_282: system.switch_cpus0 progress event, total committed:124486818, progress insts committed: 1126665, IPC: 0.112554
18412495577337: Event_283: system.switch_cpus1 progress event, total committed:123415913, progress insts committed: 167018, IPC: 0.0166851
18412495577337: Event_284: system.switch_cpus2 progress event, total committed:124437258, progress insts committed: 1125600, IPC: 0.112447
18412495577337: Event_285: system.switch_cpus3 progress event, total committed:123329618, progress insts committed: 85727, IPC: 0.00856413
18415828910670: Event_285: system.switch_cpus3 progress event, total committed:124163498, progress insts committed: 833880, IPC: 0.0833046
18415828910670: Event_284: system.switch_cpus2 progress event, total committed:125266098, progress insts committed: 828840, IPC: 0.0828011
18415828910670: Event_283: system.switch_cpus1 progress event, total committed:124249283, progress insts committed: 833370, IPC: 0.0832537
18415828910670: Event_282: system.switch_cpus0 progress event, total committed:125314458, progress insts committed: 827640, IPC: 0.0826812
18419162244003: Event_282: system.switch_cpus0 progress event, total committed:126234318, progress insts committed: 919860, IPC: 0.091894
18419162244003: Event_283: system.switch_cpus1 progress event, total committed:125196563, progress insts committed: 947280, IPC: 0.0946333
18419162244003: Event_284: system.switch_cpus2 progress event, total committed:126185793, progress insts committed: 919695, IPC: 0.0918775
18419162244003: Event_285: system.switch_cpus3 progress event, total committed:125112233, progress insts committed: 948735, IPC: 0.0947786
18422495577336: Event_285: system.switch_cpus3 progress event, total committed:126028178, progress insts committed: 915945, IPC: 0.0915029
18422495577336: Event_284: system.switch_cpus2 progress event, total committed:127133298, progress insts committed: 947505, IPC: 0.0946557
18422495577336: Event_283: system.switch_cpus1 progress event, total committed:126111008, progress insts committed: 914445, IPC: 0.0913531
18422495577336: Event_282: system.switch_cpus0 progress event, total committed:127183188, progress insts committed: 948870, IPC: 0.0947921
18425828910669: Event_282: system.switch_cpus0 progress event, total committed:128133738, progress insts committed: 950550, IPC: 0.0949599
18425828910669: Event_283: system.switch_cpus1 progress event, total committed:127058003, progress insts committed: 946995, IPC: 0.0946048
18425828910669: Event_284: system.switch_cpus2 progress event, total committed:128083518, progress insts committed: 950220, IPC: 0.094927
18425828910669: Event_285: system.switch_cpus3 progress event, total committed:126972458, progress insts committed: 944280, IPC: 0.0943336
18429162244002: Event_285: system.switch_cpus3 progress event, total committed:127915328, progress insts committed: 942870, IPC: 0.0941927
18429162244002: Event_284: system.switch_cpus2 progress event, total committed:129025548, progress insts committed: 942030, IPC: 0.0941088
18429162244002: Event_283: system.switch_cpus1 progress event, total committed:128000873, progress insts committed: 942870, IPC: 0.0941927
18429162244002: Event_282: system.switch_cpus0 progress event, total committed:129076097, progress insts committed: 942359, IPC: 0.0941417
18432495577335: Event_282: system.switch_cpus0 progress event, total committed:130009578, progress insts committed: 933481, IPC: 0.0932548
18432495577335: Event_283: system.switch_cpus1 progress event, total committed:128933603, progress insts committed: 932730, IPC: 0.0931797
18432495577335: Event_284: system.switch_cpus2 progress event, total committed:129958653, progress insts committed: 933105, IPC: 0.0932172
18432495577335: Event_285: system.switch_cpus3 progress event, total committed:128848118, progress insts committed: 932790, IPC: 0.0931857
18435828910668: Event_285: system.switch_cpus3 progress event, total committed:129788168, progress insts committed: 940050, IPC: 0.093911
18435828910668: Event_284: system.switch_cpus2 progress event, total committed:130887378, progress insts committed: 928725, IPC: 0.0927796
18435828910668: Event_283: system.switch_cpus1 progress event, total committed:129873443, progress insts committed: 939840, IPC: 00.09389
18435828910668: Event_282: system.switch_cpus0 progress event, total committed:130934958, progress insts committed: 925380, IPC: 0.0924455
18439162244001: Event_282: system.switch_cpus0 progress event, total committed:131880468, progress insts committed: 945510, IPC: 0.0944564
18439162244001: Event_283: system.switch_cpus1 progress event, total committed:130838528, progress insts committed: 965085, IPC: 0.096412
18439162244001: Event_284: system.switch_cpus2 progress event, total committed:131828898, progress insts committed: 941520, IPC: 0.0940578
18439162244001: Event_285: system.switch_cpus3 progress event, total committed:130757258, progress insts committed: 969090, IPC: 0.0968121
18442495577334: Event_285: system.switch_cpus3 progress event, total committed:131695298, progress insts committed: 938040, IPC: 0.0937102
18442495577334: Event_284: system.switch_cpus2 progress event, total committed:132786273, progress insts committed: 957375, IPC: 0.0956418
18442495577334: Event_283: system.switch_cpus1 progress event, total committed:131779403, progress insts committed: 940875, IPC: 0.0939934
18442495577334: Event_282: system.switch_cpus0 progress event, total committed:132839388, progress insts committed: 958920, IPC: 0.0957961
warn: MOVNTDQ: Ignoring non-temporal hint, modeling as cacheable!
18445828910667: Event_282: system.switch_cpus0 progress event, total committed:133725484, progress insts committed: 886096, IPC: 0.088521
18445828910667: Event_283: system.switch_cpus1 progress event, total committed:132785603, progress insts committed: 1006200, IPC: 0.100519
18445828910667: Event_284: system.switch_cpus2 progress event, total committed:133713901, progress insts committed: 927628, IPC: 00.09267
18445828910667: Event_285: system.switch_cpus3 progress event, total committed:132701753, progress insts committed: 1006455, IPC: 0.100545
18449162244000: Event_285: system.switch_cpus3 progress event, total committed:133900125, progress insts committed: 1198372, IPC: 0.119717
18449162244000: Event_284: system.switch_cpus2 progress event, total committed:134133331, progress insts committed: 419430, IPC: 0.0419011
18449162244000: Event_283: system.switch_cpus1 progress event, total committed:133916907, progress insts committed: 1131304, IPC: 0.113017
18449162244000: Event_282: system.switch_cpus0 progress event, total committed:134144914, progress insts committed: 419430, IPC: 0.0419011
18452495577333: Event_282: system.switch_cpus0 progress event, total committed:134739838, progress insts committed: 594924, IPC: 0.0594329
18452495577333: Event_283: system.switch_cpus1 progress event, total committed:134513085, progress insts committed: 596178, IPC: 0.0595582
18452495577333: Event_284: system.switch_cpus2 progress event, total committed:134728288, progress insts committed: 594957, IPC: 0.0594362
18452495577333: Event_285: system.switch_cpus3 progress event, total committed:134496468, progress insts committed: 596343, IPC: 0.0595747
18455828910666: Event_285: system.switch_cpus3 progress event, total committed:135088290, progress insts committed: 591822, IPC: 0.059123
18455828910666: Event_284: system.switch_cpus2 progress event, total committed:135320110, progress insts committed: 591822, IPC: 0.059123
18455828910666: Event_283: system.switch_cpus1 progress event, total committed:135104907, progress insts committed: 591822, IPC: 0.059123
18455828910666: Event_282: system.switch_cpus0 progress event, total committed:135331660, progress insts committed: 591822, IPC: 0.059123
18459162243999: Event_282: system.switch_cpus0 progress event, total committed:136368561, progress insts committed: 1036901, IPC: 0.103586
18459162243999: Event_283: system.switch_cpus1 progress event, total committed:135485199, progress insts committed: 380292, IPC: 0.0379912
18459162243999: Event_284: system.switch_cpus2 progress event, total committed:136309491, progress insts committed: 989381, IPC: 0.0988392
18459162243999: Event_285: system.switch_cpus3 progress event, total committed:135468615, progress insts committed: 380325, IPC: 0.0379945
18462495577332: Event_285: system.switch_cpus3 progress event, total committed:136211831, progress insts committed: 743216, IPC: 0.0742473
18462495577332: Event_284: system.switch_cpus2 progress event, total committed:137307936, progress insts committed: 998445, IPC: 0.0997447
18462495577332: Event_283: system.switch_cpus1 progress event, total committed:136288361, progress insts committed: 803162, IPC: 0.0802359
18462495577332: Event_282: system.switch_cpus0 progress event, total committed:137366391, progress insts committed: 997830, IPC: 0.0996832
18465828910665: Event_282: system.switch_cpus0 progress event, total committed:138245616, progress insts committed: 879225, IPC: 0.0878346
18465828910665: Event_283: system.switch_cpus1 progress event, total committed:137217041, progress insts committed: 928680, IPC: 0.0927751
18465828910665: Event_284: system.switch_cpus2 progress event, total committed:138187376, progress insts committed: 879440, IPC: 0.0878561
18465828910665: Event_285: system.switch_cpus3 progress event, total committed:137141291, progress insts committed: 929460, IPC: 0.0928531
18469162243998: Event_285: system.switch_cpus3 progress event, total committed:137982191, progress insts committed: 840900, IPC: 0.0840059
18469162243998: Event_284: system.switch_cpus2 progress event, total committed:139028406, progress insts committed: 841030, IPC: 0.0840189
18469162243998: Event_283: system.switch_cpus1 progress event, total committed:138055841, progress insts committed: 838800, IPC: 0.0837961
18469162243998: Event_282: system.switch_cpus0 progress event, total committed:139086816, progress insts committed: 841200, IPC: 0.0840359
18472495577331: Event_282: system.switch_cpus0 progress event, total committed:139891686, progress insts committed: 804870, IPC: 0.0804065
18472495577331: Event_283: system.switch_cpus1 progress event, total committed:138878081, progress insts committed: 822240, IPC: 0.0821418
18472495577331: Event_284: system.switch_cpus2 progress event, total committed:139830966, progress insts committed: 802560, IPC: 0.0801757
18472495577331: Event_285: system.switch_cpus3 progress event, total committed:138804311, progress insts committed: 822120, IPC: 0.0821298
18475828910664: Event_285: system.switch_cpus3 progress event, total committed:139640951, progress insts committed: 836640, IPC: 0.0835803
18475828910664: Event_284: system.switch_cpus2 progress event, total committed:140657331, progress insts committed: 826365, IPC: 0.0825539
18475828910664: Event_283: system.switch_cpus1 progress event, total committed:139711841, progress insts committed: 833760, IPC: 0.0832926
18475828910664: Event_282: system.switch_cpus0 progress event, total committed:140716176, progress insts committed: 824490, IPC: 0.0823666
18479162243997: Event_282: system.switch_cpus0 progress event, total committed:141584496, progress insts committed: 868320, IPC: 0.0867452
18479162243997: Event_283: system.switch_cpus1 progress event, total committed:140553896, progress insts committed: 842055, IPC: 0.0841213
18479162243997: Event_284: system.switch_cpus2 progress event, total committed:141521256, progress insts committed: 863925, IPC: 0.0863061
18479162243997: Event_285: system.switch_cpus3 progress event, total committed:140485106, progress insts committed: 844155, IPC: 0.0843311
18482495577330: Event_285: system.switch_cpus3 progress event, total committed:141354576, progress insts committed: 869470, IPC: 0.0868601
18482495577330: Event_284: system.switch_cpus2 progress event, total committed:142425336, progress insts committed: 904080, IPC: 0.0903176
18482495577330: Event_283: system.switch_cpus1 progress event, total committed:141424241, progress insts committed: 870345, IPC: 0.0869475
18482495577330: Event_282: system.switch_cpus0 progress event, total committed:142488096, progress insts committed: 903600, IPC: 0.0902696
18485828910663: Event_282: system.switch_cpus0 progress event, total committed:143381016, progress insts committed: 892920, IPC: 0.0892027
18485828910663: Event_283: system.switch_cpus1 progress event, total committed:142311281, progress insts committed: 887040, IPC: 0.0886153
18485828910663: Event_284: system.switch_cpus2 progress event, total committed:143318856, progress insts committed: 893520, IPC: 0.0892626
18485828910663: Event_285: system.switch_cpus3 progress event, total committed:142241516, progress insts committed: 886940, IPC: 0.0886053
18489162243996: Event_285: system.switch_cpus3 progress event, total committed:143148131, progress insts committed: 906615, IPC: 0.0905708
18489162243996: Event_284: system.switch_cpus2 progress event, total committed:144218001, progress insts committed: 899145, IPC: 0.0898246
18489162243996: Event_283: system.switch_cpus1 progress event, total committed:143217281, progress insts committed: 906000, IPC: 0.0905094
18489162243996: Event_282: system.switch_cpus0 progress event, total committed:144278976, progress insts committed: 897960, IPC: 0.0897062
18492495577329: Event_282: system.switch_cpus0 progress event, total committed:145193975, progress insts committed: 914999, IPC: 0.0914084
18492495577329: Event_283: system.switch_cpus1 progress event, total committed:144127181, progress insts committed: 909900, IPC: 0.090899
18492495577329: Event_284: system.switch_cpus2 progress event, total committed:145132581, progress insts committed: 914580, IPC: 0.0913665
18492495577329: Event_285: system.switch_cpus3 progress event, total committed:144058751, progress insts committed: 910620, IPC: 0.0909709
18495828910662: Event_285: system.switch_cpus3 progress event, total committed:145069346, progress insts committed: 1010595, IPC: 0.100958
18495828910662: Event_284: system.switch_cpus2 progress event, total committed:145968157, progress insts committed: 835576, IPC: 0.083474
18495828910662: Event_283: system.switch_cpus1 progress event, total committed:145139441, progress insts committed: 1012260, IPC: 0.101125
18495828910662: Event_282: system.switch_cpus0 progress event, total committed:145981621, progress insts committed: 787646, IPC: 0.0786858
18499162243995: Event_282: system.switch_cpus0 progress event, total committed:146430553, progress insts committed: 448932, IPC: 0.0448483
18499162243995: Event_283: system.switch_cpus1 progress event, total committed:146205450, progress insts committed: 1066009, IPC: 0.106494
18499162243995: Event_284: system.switch_cpus2 progress event, total committed:146417089, progress insts committed: 448932, IPC: 0.0448483
18499162243995: Event_285: system.switch_cpus3 progress event, total committed:146192265, progress insts committed: 1122919, IPC: 00.11218
18502495577328: Event_285: system.switch_cpus3 progress event, total committed:146828175, progress insts committed: 635910, IPC: 0.0635274
18502495577328: Event_284: system.switch_cpus2 progress event, total committed:147053032, progress insts committed: 635943, IPC: 0.0635307
18502495577328: Event_283: system.switch_cpus1 progress event, total committed:146841393, progress insts committed: 635943, IPC: 0.0635307
18502495577328: Event_282: system.switch_cpus0 progress event, total committed:147066463, progress insts committed: 635910, IPC: 0.0635274
18505828910661: Event_282: system.switch_cpus0 progress event, total committed:147702727, progress insts committed: 636264, IPC: 0.0635628
18505828910661: Event_283: system.switch_cpus1 progress event, total committed:147477633, progress insts committed: 636240, IPC: 0.0635604
18505828910661: Event_284: system.switch_cpus2 progress event, total committed:147689272, progress insts committed: 636240, IPC: 0.0635604
18505828910661: Event_285: system.switch_cpus3 progress event, total committed:147464419, progress insts committed: 636244, IPC: 0.0635608
18509162243994: Event_285: system.switch_cpus3 progress event, total committed:147940595, progress insts committed: 476176, IPC: 00.04757
18509162243994: Event_284: system.switch_cpus2 progress event, total committed:149152175, progress insts committed: 1462903, IPC: 0.146144
18509162243994: Event_283: system.switch_cpus1 progress event, total committed:148009320, progress insts committed: 531687, IPC: 0.0531155
18509162243994: Event_282: system.switch_cpus0 progress event, total committed:149226375, progress insts committed: 1523648, IPC: 0.152212
18512495577327: Event_282: system.switch_cpus0 progress event, total committed:150605515, progress insts committed: 1379140, IPC: 0.137776
18512495577327: Event_283: system.switch_cpus1 progress event, total committed:149388320, progress insts committed: 1379000, IPC: 0.137762
18512495577327: Event_284: system.switch_cpus2 progress event, total committed:150531127, progress insts committed: 1378952, IPC: 0.137757
18512495577327: Event_285: system.switch_cpus3 progress event, total committed:149319595, progress insts committed: 1379000, IPC: 0.137762
18515828910660: Event_285: system.switch_cpus3 progress event, total committed:150692715, progress insts committed: 1373120, IPC: 0.137175
18515828910660: Event_284: system.switch_cpus2 progress event, total committed:151904296, progress insts committed: 1373169, IPC: 00.13718
18515828910660: Event_283: system.switch_cpus1 progress event, total committed:150761440, progress insts committed: 1373120, IPC: 0.137175
18515828910660: Event_282: system.switch_cpus0 progress event, total committed:151978775, progress insts committed: 1373260, IPC: 0.137189
18519162243993: Event_282: system.switch_cpus0 progress event, total committed:153010684, progress insts committed: 1031909, IPC: 0.103088
18519162243993: Event_283: system.switch_cpus1 progress event, total committed:151948780, progress insts committed: 1187340, IPC: 0.118615
18519162243993: Event_284: system.switch_cpus2 progress event, total committed:152946679, progress insts committed: 1042383, IPC: 0.104134
18519162243993: Event_285: system.switch_cpus3 progress event, total committed:151880077, progress insts committed: 1187362, IPC: 0.118617
18522495577326: Event_285: system.switch_cpus3 progress event, total committed:152815929, progress insts committed: 935852, IPC: 0.0934916
18522495577326: Event_284: system.switch_cpus2 progress event, total committed:153857764, progress insts committed: 911085, IPC: 0.0910174
18522495577326: Event_283: system.switch_cpus1 progress event, total committed:152874789, progress insts committed: 926009, IPC: 0.0925083
18522495577326: Event_282: system.switch_cpus0 progress event, total committed:153921724, progress insts committed: 911040, IPC: 0.0910129
18525828910659: Event_282: system.switch_cpus0 progress event, total committed:154809004, progress insts committed: 887280, IPC: 0.0886393
18525828910659: Event_283: system.switch_cpus1 progress event, total committed:153762069, progress insts committed: 887280, IPC: 0.0886393
18525828910659: Event_284: system.switch_cpus2 progress event, total committed:154745164, progress insts committed: 887400, IPC: 0.0886513
18525828910659: Event_285: system.switch_cpus3 progress event, total committed:153703284, progress insts committed: 887355, IPC: 0.0886468
18529162243992: Event_285: system.switch_cpus3 progress event, total committed:154641564, progress insts committed: 938280, IPC: 0.0937342
18529162243992: Event_284: system.switch_cpus2 progress event, total committed:155683504, progress insts committed: 938340, IPC: 0.0937402
18529162243992: Event_283: system.switch_cpus1 progress event, total committed:154700349, progress insts committed: 938280, IPC: 0.0937342
18529162243992: Event_282: system.switch_cpus0 progress event, total committed:155747584, progress insts committed: 938580, IPC: 0.0937641
18532495577325: Event_282: system.switch_cpus0 progress event, total committed:156690199, progress insts committed: 942615, IPC: 0.0941672
18532495577325: Event_283: system.switch_cpus1 progress event, total committed:155642949, progress insts committed: 942600, IPC: 0.0941657
18532495577325: Event_284: system.switch_cpus2 progress event, total committed:156626284, progress insts committed: 942780, IPC: 0.0941837
18532495577325: Event_285: system.switch_cpus3 progress event, total committed:155584044, progress insts committed: 942480, IPC: 0.0941538
18535828910658: Event_285: system.switch_cpus3 progress event, total committed:156532779, progress insts committed: 948735, IPC: 0.0947786
18535828910658: Event_284: system.switch_cpus2 progress event, total committed:157575004, progress insts committed: 948720, IPC: 0.0947771
18535828910658: Event_283: system.switch_cpus1 progress event, total committed:156591684, progress insts committed: 948735, IPC: 0.0947786
18535828910658: Event_282: system.switch_cpus0 progress event, total committed:157638964, progress insts committed: 948765, IPC: 0.0947816
18539162243991: Event_282: system.switch_cpus0 progress event, total committed:158583484, progress insts committed: 944520, IPC: 0.0943575
18539162243991: Event_283: system.switch_cpus1 progress event, total committed:157535964, progress insts committed: 944280, IPC: 0.0943336
18539162243991: Event_284: system.switch_cpus2 progress event, total committed:158519513, progress insts committed: 944509, IPC: 0.0943564
18539162243991: Event_285: system.switch_cpus3 progress event, total committed:157477163, progress insts committed: 944384, IPC: 0.094344
18542495577324: Event_285: system.switch_cpus3 progress event, total committed:158772220, progress insts committed: 1295057, IPC: 0.129376
18542495577324: Event_284: system.switch_cpus2 progress event, total committed:158986880, progress insts committed: 467367, IPC: 00.04669
18542495577324: Event_283: system.switch_cpus1 progress event, total committed:158783128, progress insts committed: 1247164, IPC: 0.124592
18542495577324: Event_282: system.switch_cpus0 progress event, total committed:159000740, progress insts committed: 417256, IPC: 0.0416839
18545828910657: Event_282: system.switch_cpus0 progress event, total committed:159598040, progress insts committed: 597300, IPC: 0.0596703
18545828910657: Event_283: system.switch_cpus1 progress event, total committed:159380428, progress insts committed: 597300, IPC: 0.0596703
18545828910657: Event_284: system.switch_cpus2 progress event, total committed:159584180, progress insts committed: 597300, IPC: 0.0596703
18545828910657: Event_285: system.switch_cpus3 progress event, total committed:159369520, progress insts committed: 597300, IPC: 0.0596703
18549162243990: Event_285: system.switch_cpus3 progress event, total committed:159955138, progress insts committed: 585618, IPC: 0.0585032
18549162243990: Event_284: system.switch_cpus2 progress event, total committed:160169831, progress insts committed: 585651, IPC: 0.0585065
18549162243990: Event_283: system.switch_cpus1 progress event, total committed:159966046, progress insts committed: 585618, IPC: 0.0585032
18549162243990: Event_282: system.switch_cpus0 progress event, total committed:160183658, progress insts committed: 585618, IPC: 0.0585032
18552495577323: Event_282: system.switch_cpus0 progress event, total committed:161217729, progress insts committed: 1034071, IPC: 0.103304
18552495577323: Event_283: system.switch_cpus1 progress event, total committed:160513651, progress insts committed: 547605, IPC: 0.0547057
18552495577323: Event_284: system.switch_cpus2 progress event, total committed:161141706, progress insts committed: 971875, IPC: 0.0970903
18552495577323: Event_285: system.switch_cpus3 progress event, total committed:160502740, progress insts committed: 547602, IPC: 0.0547054
18555828910656: Event_285: system.switch_cpus3 progress event, total committed:162083472, progress insts committed: 1580732, IPC: 0.157915
18555828910656: Event_284: system.switch_cpus2 progress event, total committed:163100201, progress insts committed: 1958495, IPC: 0.195654
18555828910656: Event_283: system.switch_cpus1 progress event, total committed:162122456, progress insts committed: 1608805, IPC: 00.16072
18555828910656: Event_282: system.switch_cpus0 progress event, total committed:163188472, progress insts committed: 1970743, IPC: 0.196877
18559162243989: Event_282: system.switch_cpus0 progress event, total committed:165131846, progress insts committed: 1943374, IPC: 0.194143
18559162243989: Event_283: system.switch_cpus1 progress event, total committed:164055211, progress insts committed: 1932755, IPC: 0.193082
18559162243989: Event_284: system.switch_cpus2 progress event, total committed:165066231, progress insts committed: 1966030, IPC: 0.196406
18559162243989: Event_285: system.switch_cpus3 progress event, total committed:164016121, progress insts committed: 1932649, IPC: 0.193072
18562495577322: Event_285: system.switch_cpus3 progress event, total committed:165970326, progress insts committed: 1954205, IPC: 0.195225
18562495577322: Event_284: system.switch_cpus2 progress event, total committed:167044856, progress insts committed: 1978625, IPC: 0.197665
18562495577322: Event_283: system.switch_cpus1 progress event, total committed:166013926, progress insts committed: 1958715, IPC: 0.195676
18562495577322: Event_282: system.switch_cpus0 progress event, total committed:167098536, progress insts committed: 1966690, IPC: 0.196472
18565828910655: Event_282: system.switch_cpus0 progress event, total committed:169079141, progress insts committed: 1980605, IPC: 0.197862
18565828910655: Event_283: system.switch_cpus1 progress event, total committed:167963016, progress insts committed: 1949090, IPC: 0.194714
18565828910655: Event_284: system.switch_cpus2 progress event, total committed:168990261, progress insts committed: 1945405, IPC: 0.194346
18565828910655: Event_285: system.switch_cpus3 progress event, total committed:167951752, progress insts committed: 1981426, IPC: 0.197944
18569162243988: Event_285: system.switch_cpus3 progress event, total committed:169929556, progress insts committed: 1977804, IPC: 0.197583
18569162243988: Event_284: system.switch_cpus2 progress event, total committed:170926367, progress insts committed: 1936106, IPC: 0.193417
18569162243988: Event_283: system.switch_cpus1 progress event, total committed:169945927, progress insts committed: 1982911, IPC: 0.198093
18569162243988: Event_282: system.switch_cpus0 progress event, total committed:171029877, progress insts committed: 1950736, IPC: 0.194879
18572495577321: Event_282: system.switch_cpus0 progress event, total committed:173001191, progress insts committed: 1971314, IPC: 0.196934
18572495577321: Event_283: system.switch_cpus1 progress event, total committed:171902501, progress insts committed: 1956574, IPC: 0.195462
18572495577321: Event_284: system.switch_cpus2 progress event, total committed:172940856, progress insts committed: 2014489, IPC: 0.201247
18572495577321: Event_285: system.switch_cpus3 progress event, total committed:171964886, progress insts committed: 2035330, IPC: 0.203329
18575828910654: Event_285: system.switch_cpus3 progress event, total committed:174053397, progress insts committed: 2088511, IPC: 0.208642
18575828910654: Event_284: system.switch_cpus2 progress event, total committed:176953790, progress insts committed: 4012934, IPC: 0.400892
18575828910654: Event_283: system.switch_cpus1 progress event, total committed:173978417, progress insts committed: 2075916, IPC: 0.207384
18575828910654: Event_282: system.switch_cpus0 progress event, total committed:176992427, progress insts committed: 3991236, IPC: 0.398724
18579162243987: Event_282: system.switch_cpus0 progress event, total committed:181759099, progress insts committed: 4766672, IPC: 0.476191
18579162243987: Event_283: system.switch_cpus1 progress event, total committed:179809789, progress insts committed: 5831372, IPC: 0.582554
18579162243987: Event_284: system.switch_cpus2 progress event, total committed:181726295, progress insts committed: 4772505, IPC: 0.476773
18579162243987: Event_285: system.switch_cpus3 progress event, total committed:179966401, progress insts committed: 5913004, IPC: 0.590709
18582495577320: Event_285: system.switch_cpus3 progress event, total committed:184964064, progress insts committed: 4997663, IPC: 0.499267
18582495577320: Event_284: system.switch_cpus2 progress event, total committed:186721704, progress insts committed: 4995409, IPC: 0.499041
18582495577320: Event_283: system.switch_cpus1 progress event, total committed:184809178, progress insts committed: 4999389, IPC: 0.499439
18582495577320: Event_282: system.switch_cpus0 progress event, total committed:186756113, progress insts committed: 4997014, IPC: 0.499202
18585828910653: Event_282: system.switch_cpus0 progress event, total committed:191819076, progress insts committed: 5062963, IPC: 00.50579
18585828910653: Event_283: system.switch_cpus1 progress event, total committed:189832363, progress insts committed: 5023185, IPC: 0.501816
18585828910653: Event_284: system.switch_cpus2 progress event, total committed:191783928, progress insts committed: 5062224, IPC: 0.505716
18585828910653: Event_285: system.switch_cpus3 progress event, total committed:189985780, progress insts committed: 5021716, IPC: 0.501669
18589162243986: Event_285: system.switch_cpus3 progress event, total committed:194670949, progress insts committed: 4685169, IPC: 0.468048
18589162243986: Event_284: system.switch_cpus2 progress event, total committed:195706454, progress insts committed: 3922526, IPC: 00.39186
18589162243986: Event_283: system.switch_cpus1 progress event, total committed:194584042, progress insts committed: 4751679, IPC: 0.474693
18589162243986: Event_282: system.switch_cpus0 progress event, total committed:195736247, progress insts committed: 3917171, IPC: 0.391325
18592495577319: Event_282: system.switch_cpus0 progress event, total committed:197734008, progress insts committed: 1997761, IPC: 0.199576
18592495577319: Event_283: system.switch_cpus1 progress event, total committed:196544682, progress insts committed: 1960640, IPC: 0.195868
18592495577319: Event_284: system.switch_cpus2 progress event, total committed:197692208, progress insts committed: 1985754, IPC: 0.198377
18592495577319: Event_285: system.switch_cpus3 progress event, total committed:196646553, progress insts committed: 1975604, IPC: 0.197363
18595828910652: Event_285: system.switch_cpus3 progress event, total committed:198522709, progress insts committed: 1876156, IPC: 0.187428
18595828910652: Event_284: system.switch_cpus2 progress event, total committed:199574807, progress insts committed: 1882599, IPC: 0.188072
18595828910652: Event_283: system.switch_cpus1 progress event, total committed:198444602, progress insts committed: 1899920, IPC: 0.189802
18595828910652: Event_282: system.switch_cpus0 progress event, total committed:199618722, progress insts committed: 1884714, IPC: 0.188283
18599162243985: Event_282: system.switch_cpus0 progress event, total committed:201492327, progress insts committed: 1873605, IPC: 0.187173
18599162243985: Event_283: system.switch_cpus1 progress event, total committed:200332854, progress insts committed: 1888252, IPC: 0.188636
18599162243985: Event_284: system.switch_cpus2 progress event, total committed:201463672, progress insts committed: 1888865, IPC: 0.188698
18599162243985: Event_285: system.switch_cpus3 progress event, total committed:200402507, progress insts committed: 1879798, IPC: 0.187792
18602495577318: Event_285: system.switch_cpus3 progress event, total committed:202267832, progress insts committed: 1865325, IPC: 0.186346
18602495577318: Event_284: system.switch_cpus2 progress event, total committed:203370907, progress insts committed: 1907235, IPC: 0.190533
18602495577318: Event_283: system.switch_cpus1 progress event, total committed:202204237, progress insts committed: 1871383, IPC: 0.186951
18602495577318: Event_282: system.switch_cpus0 progress event, total committed:203392903, progress insts committed: 1900576, IPC: 0.189868
18605828910651: Event_282: system.switch_cpus0 progress event, total committed:205301699, progress insts committed: 1908796, IPC: 0.190689
18605828910651: Event_283: system.switch_cpus1 progress event, total committed:204074457, progress insts committed: 1870220, IPC: 0.186835
18605828910651: Event_284: system.switch_cpus2 progress event, total committed:205283642, progress insts committed: 1912735, IPC: 0.191082
18605828910651: Event_285: system.switch_cpus3 progress event, total committed:204153452, progress insts committed: 1885620, IPC: 0.188373
18609162243984: Event_285: system.switch_cpus3 progress event, total committed:206068552, progress insts committed: 1915100, IPC: 0.191318
18609162243984: Event_284: system.switch_cpus2 progress event, total committed:207199787, progress insts committed: 1916145, IPC: 0.191423
18609162243984: Event_283: system.switch_cpus1 progress event, total committed:205999677, progress insts committed: 1925220, IPC: 0.192329
18609162243984: Event_282: system.switch_cpus0 progress event, total committed:207227799, progress insts committed: 1926100, IPC: 0.192417
18612495577317: Event_282: system.switch_cpus0 progress event, total committed:211503195, progress insts committed: 4275396, IPC: 0.427112
18612495577317: Event_283: system.switch_cpus1 progress event, total committed:208673877, progress insts committed: 2674200, IPC: 0.267153
18612495577317: Event_284: system.switch_cpus2 progress event, total committed:211436473, progress insts committed: 4236686, IPC: 0.423245
18612495577317: Event_285: system.switch_cpus3 progress event, total committed:209366289, progress insts committed: 3297737, IPC: 0.329444
18615828910650: Event_285: system.switch_cpus3 progress event, total committed:214110692, progress insts committed: 4744403, IPC: 0.473966
18615828910650: Event_284: system.switch_cpus2 progress event, total committed:215994382, progress insts committed: 4557909, IPC: 0.455335
18615828910650: Event_283: system.switch_cpus1 progress event, total committed:213952493, progress insts committed: 5278616, IPC: 0.527334
18615828910650: Event_282: system.switch_cpus0 progress event, total committed:216060099, progress insts committed: 4556904, IPC: 0.455235
18619162243983: Event_282: system.switch_cpus0 progress event, total committed:220774243, progress insts committed: 4714144, IPC: 0.470943
18619162243983: Event_283: system.switch_cpus1 progress event, total committed:218647125, progress insts committed: 4694632, IPC: 0.468994
18619162243983: Event_284: system.switch_cpus2 progress event, total committed:220708716, progress insts committed: 4714334, IPC: 0.470962
18619162243983: Event_285: system.switch_cpus3 progress event, total committed:218799260, progress insts committed: 4688568, IPC: 0.468388
18622495577316: Event_285: system.switch_cpus3 progress event, total committed:223380021, progress insts committed: 4580761, IPC: 0.457618
18622495577316: Event_284: system.switch_cpus2 progress event, total committed:224871962, progress insts committed: 4163246, IPC: 0.415908
18622495577316: Event_283: system.switch_cpus1 progress event, total committed:223234833, progress insts committed: 4587708, IPC: 0.458312
18622495577316: Event_282: system.switch_cpus0 progress event, total committed:224916186, progress insts committed: 4141943, IPC: 00.41378
18625828910649: Event_282: system.switch_cpus0 progress event, total committed:227028457, progress insts committed: 2112271, IPC: 0.211016
18625828910649: Event_283: system.switch_cpus1 progress event, total committed:225651196, progress insts committed: 2416363, IPC: 0.241395
18625828910649: Event_284: system.switch_cpus2 progress event, total committed:226984351, progress insts committed: 2112389, IPC: 0.211028
18625828910649: Event_285: system.switch_cpus3 progress event, total committed:225754446, progress insts committed: 2374425, IPC: 0.237205
18629162243982: Event_285: system.switch_cpus3 progress event, total committed:227744088, progress insts committed: 1989642, IPC: 0.198765
18629162243982: Event_284: system.switch_cpus2 progress event, total committed:228964846, progress insts committed: 1980495, IPC: 0.197851
18629162243982: Event_283: system.switch_cpus1 progress event, total committed:227642416, progress insts committed: 1991220, IPC: 0.198923
18629162243982: Event_282: system.switch_cpus0 progress event, total committed:229026446, progress insts committed: 1997989, IPC: 0.199599
18632495577315: Event_282: system.switch_cpus0 progress event, total committed:230950841, progress insts committed: 1924395, IPC: 0.192247
18632495577315: Event_283: system.switch_cpus1 progress event, total committed:229571211, progress insts committed: 1928795, IPC: 0.192687
18632495577315: Event_284: system.switch_cpus2 progress event, total committed:230877306, progress insts committed: 1912460, IPC: 0.191055
18632495577315: Event_285: system.switch_cpus3 progress event, total committed:229700853, progress insts committed: 1956765, IPC: 0.195481
18635828910648: Event_285: system.switch_cpus3 progress event, total committed:231596491, progress insts committed: 1895638, IPC: 0.189374
18635828910648: Event_284: system.switch_cpus2 progress event, total committed:232766552, progress insts committed: 1889246, IPC: 0.188736
18635828910648: Event_283: system.switch_cpus1 progress event, total committed:231462052, progress insts committed: 1890841, IPC: 0.188895
18635828910648: Event_282: system.switch_cpus0 progress event, total committed:232841462, progress insts committed: 1890621, IPC: 0.188873
18639162243981: Event_282: system.switch_cpus0 progress event, total committed:234764647, progress insts committed: 1923185, IPC: 0.192126
18639162243981: Event_283: system.switch_cpus1 progress event, total committed:233386282, progress insts committed: 1924230, IPC: 0.192231
18639162243981: Event_284: system.switch_cpus2 progress event, total committed:234668617, progress insts committed: 1902065, IPC: 0.190016
18639162243981: Event_285: system.switch_cpus3 progress event, total committed:233528417, progress insts committed: 1931926, IPC: 0.192999
18642495577314: Event_285: system.switch_cpus3 progress event, total committed:235536361, progress insts committed: 2007944, IPC: 0.200594
18642495577314: Event_284: system.switch_cpus2 progress event, total committed:236653626, progress insts committed: 1985009, IPC: 0.198302
18642495577314: Event_283: system.switch_cpus1 progress event, total committed:235361077, progress insts committed: 1974795, IPC: 0.197282
18642495577314: Event_282: system.switch_cpus0 progress event, total committed:236744274, progress insts committed: 1979627, IPC: 0.197765
18645828910647: Event_282: system.switch_cpus0 progress event, total committed:240964166, progress insts committed: 4219892, IPC: 0.421567
18645828910647: Event_283: system.switch_cpus1 progress event, total committed:237528002, progress insts committed: 2166925, IPC: 0.216476
18645828910647: Event_284: system.switch_cpus2 progress event, total committed:240863977, progress insts committed: 4210351, IPC: 0.420614
18645828910647: Event_285: system.switch_cpus3 progress event, total committed:238526146, progress insts committed: 2989785, IPC: 00.29868
18649162243980: Event_285: system.switch_cpus3 progress event, total committed:243698481, progress insts committed: 5172335, IPC: 0.516716
18649162243980: Event_284: system.switch_cpus2 progress event, total committed:245626559, progress insts committed: 4762582, IPC: 0.475782
18649162243980: Event_283: system.switch_cpus1 progress event, total committed:243394629, progress insts committed: 5866627, IPC: 0.586076
18649162243980: Event_282: system.switch_cpus0 progress event, total committed:245722439, progress insts committed: 4758273, IPC: 0.475351
18652495577313: Event_282: system.switch_cpus0 progress event, total committed:250694765, progress insts committed: 4972326, IPC: 0.496735
18652495577313: Event_283: system.switch_cpus1 progress event, total committed:248336360, progress insts committed: 4941731, IPC: 0.493679
18652495577313: Event_284: system.switch_cpus2 progress event, total committed:250612357, progress insts committed: 4985798, IPC: 0.498081
18652495577313: Event_285: system.switch_cpus3 progress event, total committed:248630944, progress insts committed: 4932463, IPC: 0.492753
18655828910646: Event_285: system.switch_cpus3 progress event, total committed:253624317, progress insts committed: 4993373, IPC: 0.498838
[...]
18775828910634: Event_284: system.switch_cpus2 progress event, total committed:313271791, progress insts committed: 3978126, IPC: 0.397415
18775828910634: Event_283: system.switch_cpus1 progress event, total committed:309438580, progress insts committed: 2065741, IPC: 0.206368
18775828910634: Event_282: system.switch_cpus0 progress event, total committed:313480051, progress insts committed: 4045311, IPC: 0.404127
18779162243967: Event_282: system.switch_cpus0 progress event, total committed:317865838, progress insts committed: 4385787, IPC: 00.43814
18779162243967: Event_283: system.switch_cpus1 progress event, total committed:314382846, progress insts committed: 4944266, IPC: 0.493932
18779162243967: Event_284: system.switch_cpus2 progress event, total committed:317675133, progress insts committed: 4403342, IPC: 0.439894
18779162243967: Event_285: system.switch_cpus3 progress event, total committed:314773769, progress insts committed: 5111654, IPC: 0.510654
18782495577300: Event_285: system.switch_cpus3 progress event, total committed:319897896, progress insts committed: 5124127, IPC: 000.5119
18782495577300: Event_284: system.switch_cpus2 progress event, total committed:320704703, progress insts committed: 3029570, IPC: 0.302654
18782495577300: Event_283: system.switch_cpus1 progress event, total committed:319503063, progress insts committed: 5120217, IPC: 00.51151
18782495577300: Event_282: system.switch_cpus0 progress event, total committed:320710550, progress insts committed: 2844712, IPC: 0.284187
18785828910633: Event_282: system.switch_cpus0 progress event, total committed:320866205, progress insts committed: 155655, IPC: 0.0155499
18785828910633: Event_283: system.switch_cpus1 progress event, total committed:320734907, progress insts committed: 1231844, IPC: 0.123061
18785828910633: Event_284: system.switch_cpus2 progress event, total committed:320858825, progress insts committed: 154122, IPC: 0.0153968
18785828910633: Event_285: system.switch_cpus3 progress event, total committed:320749963, progress insts committed: 852067, IPC: 0.0851215
18789162243966: Event_285: system.switch_cpus3 progress event, total committed:320885926, progress insts committed: 135963, IPC: 0.0135827
18789162243966: Event_284: system.switch_cpus2 progress event, total committed:321006808, progress insts committed: 147983, IPC: 0.0147835
18789162243966: Event_283: system.switch_cpus1 progress event, total committed:320871055, progress insts committed: 136148, IPC: 0.0136012
18789162243966: Event_282: system.switch_cpus0 progress event, total committed:321015196, progress insts committed: 148991, IPC: 0.0148842
18792495577299: Event_282: system.switch_cpus0 progress event, total committed:321173540, progress insts committed: 158344, IPC: 0.0158186
18792495577299: Event_283: system.switch_cpus1 progress event, total committed:321017205, progress insts committed: 146150, IPC: 0.0146004
18792495577299: Event_284: system.switch_cpus2 progress event, total committed:321151561, progress insts committed: 144753, IPC: 0.0144608
18792495577299: Event_285: system.switch_cpus3 progress event, total committed:321033396, progress insts committed: 147470, IPC: 0.0147323
18795828910632: Event_285: system.switch_cpus3 progress event, total committed:321104739, progress insts committed: 71343, IPC: 0.00712717
18795828910632: Event_284: system.switch_cpus2 progress event, total committed:322267324, progress insts committed: 1115763, IPC: 0.111465
18795828910632: Event_283: system.switch_cpus1 progress event, total committed:321088707, progress insts committed: 71502, IPC: 0.00714305
18795828910632: Event_282: system.switch_cpus0 progress event, total committed:322406525, progress insts committed: 1232985, IPC: 0.123175
18799162243965: Event_282: system.switch_cpus0 progress event, total committed:323240504, progress insts committed: 833979, IPC: 0.0833145
18799162243965: Event_283: system.switch_cpus1 progress event, total committed:321404125, progress insts committed: 315418, IPC: 0.0315103
18799162243965: Event_284: system.switch_cpus2 progress event, total committed:323216480, progress insts committed: 949156, IPC: 0.0948207
18799162243965: Event_285: system.switch_cpus3 progress event, total committed:321681655, progress insts committed: 576916, IPC: 0.0576339
18802495577298: Event_285: system.switch_cpus3 progress event, total committed:322639090, progress insts committed: 957435, IPC: 0.0956478
18802495577298: Event_284: system.switch_cpus2 progress event, total committed:323931112, progress insts committed: 714632, IPC: 0.0713917
18802495577298: Event_283: system.switch_cpus1 progress event, total committed:322367830, progress insts committed: 963705, IPC: 0.0962741
18802495577298: Event_282: system.switch_cpus0 progress event, total committed:324029857, progress insts committed: 789353, IPC: 0.0788564
18805828910631: Event_282: system.switch_cpus0 progress event, total committed:325105372, progress insts committed: 1075515, IPC: 0.107444
18805828910631: Event_283: system.switch_cpus1 progress event, total committed:323194981, progress insts committed: 827151, IPC: 0.0826324
18805828910631: Event_284: system.switch_cpus2 progress event, total committed:325004482, progress insts committed: 1073370, IPC: 00.10723
18805828910631: Event_285: system.switch_cpus3 progress event, total committed:323258026, progress insts committed: 618936, IPC: 0.0618317
18809162243964: Event_285: system.switch_cpus3 progress event, total committed:324367737, progress insts committed: 1109711, IPC: 00.11086
18809162243964: Event_284: system.switch_cpus2 progress event, total committed:325681931, progress insts committed: 677449, IPC: 0.0676772
18809162243964: Event_283: system.switch_cpus1 progress event, total committed:324109812, progress insts committed: 914831, IPC: 0.0913916
18809162243964: Event_282: system.switch_cpus0 progress event, total committed:325760611, progress insts committed: 655239, IPC: 0.0654584
18812495577297: Event_282: system.switch_cpus0 progress event, total committed:326930281, progress insts committed: 1169670, IPC: 00.11685
18812495577297: Event_283: system.switch_cpus1 progress event, total committed:325113055, progress insts committed: 1003243, IPC: 0.100224
18812495577297: Event_284: system.switch_cpus2 progress event, total committed:326862796, progress insts committed: 1180865, IPC: 0.117968
18812495577297: Event_285: system.switch_cpus3 progress event, total committed:325254375, progress insts committed: 886638, IPC: 0.0885751
18815828910630: Event_285: system.switch_cpus3 progress event, total committed:326443673, progress insts committed: 1189298, IPC: 0.118811
18815828910630: Event_284: system.switch_cpus2 progress event, total committed:327706519, progress insts committed: 843723, IPC: 0.0842879
18815828910630: Event_283: system.switch_cpus1 progress event, total committed:326086226, progress insts committed: 973171, IPC: 0.0972198
18815828910630: Event_282: system.switch_cpus0 progress event, total committed:327735284, progress insts committed: 805003, IPC: 0.0804198
18819162243963: Event_282: system.switch_cpus0 progress event, total committed:329129699, progress insts committed: 1394415, IPC: 0.139302
18819162243963: Event_283: system.switch_cpus1 progress event, total committed:327507429, progress insts committed: 1421203, IPC: 0.141978
18819162243963: Event_284: system.switch_cpus2 progress event, total committed:329096530, progress insts committed: 1390011, IPC: 0.138862
18819162243963: Event_285: system.switch_cpus3 progress event, total committed:327589218, progress insts committed: 1145545, IPC: 00.11444
18822495577296: Event_285: system.switch_cpus3 progress event, total committed:329323414, progress insts committed: 1734196, IPC: 0.173246
18822495577296: Event_284: system.switch_cpus2 progress event, total committed:331086929, progress insts committed: 1990399, IPC: 0.198841
18822495577296: Event_283: system.switch_cpus1 progress event, total committed:328966339, progress insts committed: 1458910, IPC: 0.145745
18822495577296: Event_282: system.switch_cpus0 progress event, total committed:331161254, progress insts committed: 2031555, IPC: 0.202952
18825828910629: Event_282: system.switch_cpus0 progress event, total committed:336262911, progress insts committed: 5101657, IPC: 0.509656
18825828910629: Event_283: system.switch_cpus1 progress event, total committed:331752485, progress insts committed: 2786146, IPC: 0.278336
18825828910629: Event_284: system.switch_cpus2 progress event, total committed:336113853, progress insts committed: 5026924, IPC: 00.50219
18825828910629: Event_285: system.switch_cpus3 progress event, total committed:333142122, progress insts committed: 3818708, IPC: 0.381489
18829162243962: Event_285: system.switch_cpus3 progress event, total committed:336765097, progress insts committed: 3622975, IPC: 0.361935
18829162243962: Event_284: system.switch_cpus2 progress event, total committed:338417461, progress insts committed: 2303608, IPC: 00.23013
18829162243962: Event_283: system.switch_cpus1 progress event, total committed:336418362, progress insts committed: 4665877, IPC: 0.466121
18829162243962: Event_282: system.switch_cpus0 progress event, total committed:338541431, progress insts committed: 2278520, IPC: 0.227624
18832495577295: Event_282: system.switch_cpus0 progress event, total committed:342395325, progress insts committed: 3853894, IPC: 0.385004
18832495577295: Event_283: system.switch_cpus1 progress event, total committed:338467725, progress insts committed: 2049363, IPC: 0.204731
18832495577295: Event_284: system.switch_cpus2 progress event, total committed:342227253, progress insts committed: 3809792, IPC: 0.380598
18832495577295: Event_285: system.switch_cpus3 progress event, total committed:338810331, progress insts committed: 2045234, IPC: 0.204319
18835828910628: Event_285: system.switch_cpus3 progress event, total committed:343066511, progress insts committed: 4256180, IPC: 0.425192
18835828910628: Event_284: system.switch_cpus2 progress event, total committed:345354007, progress insts committed: 3126754, IPC: 0.312363
18835828910628: Event_283: system.switch_cpus1 progress event, total committed:342482723, progress insts committed: 4014998, IPC: 0.401098
18835828910628: Event_282: system.switch_cpus0 progress event, total committed:345471923, progress insts committed: 3076598, IPC: 0.307352
18839162243961: Event_282: system.switch_cpus0 progress event, total committed:347643883, progress insts committed: 2171960, IPC: 0.216979
18839162243961: Event_283: system.switch_cpus1 progress event, total committed:345257980, progress insts committed: 2775257, IPC: 0.277248
18839162243961: Event_284: system.switch_cpus2 progress event, total committed:347550978, progress insts committed: 2196971, IPC: 0.219477
18839162243961: Event_285: system.switch_cpus3 progress event, total committed:345640452, progress insts committed: 2573941, IPC: 0.257137
18842495577294: Event_285: system.switch_cpus3 progress event, total committed:347688212, progress insts committed: 2047760, IPC: 0.204571
18842495577294: Event_284: system.switch_cpus2 progress event, total committed:352230204, progress insts committed: 4679226, IPC: 0.467455
18842495577294: Event_283: system.switch_cpus1 progress event, total committed:347299068, progress insts committed: 2041088, IPC: 0.203905
18842495577294: Event_282: system.switch_cpus0 progress event, total committed:352337082, progress insts committed: 4693199, IPC: 0.468851
18845828910627: Event_282: system.switch_cpus0 progress event, total committed:353018663, progress insts committed: 681581, IPC: 0.0680899
18845828910627: Event_283: system.switch_cpus1 progress event, total committed:352664587, progress insts committed: 5365519, IPC: 0.536015
18845828910627: Event_284: system.switch_cpus2 progress event, total committed:353014343, progress insts committed: 784139, IPC: 0.0783355
18845828910627: Event_285: system.switch_cpus3 progress event, total committed:352870323, progress insts committed: 5182111, IPC: 0.517693
18849162243960: Event_285: system.switch_cpus3 progress event, total committed:352995988, progress insts committed: 125665, IPC: 0.0125539
18849162243960: Event_284: system.switch_cpus2 progress event, total committed:353526147, progress insts committed: 511804, IPC: 0.0511292
18849162243960: Event_283: system.switch_cpus1 progress event, total committed:352969470, progress insts committed: 304883, IPC: 0.0304578
18849162243960: Event_282: system.switch_cpus0 progress event, total committed:353600729, progress insts committed: 582066, IPC: 0.0581484
18852495577293: Event_282: system.switch_cpus0 progress event, total committed:355022731, progress insts committed: 1422002, IPC: 0.142058
18852495577293: Event_283: system.switch_cpus1 progress event, total committed:353068702, progress insts committed: 99232, IPC: 0.00991328
18852495577293: Event_284: system.switch_cpus2 progress event, total committed:354974191, progress insts committed: 1448044, IPC: 00.14466
18852495577293: Event_285: system.switch_cpus3 progress event, total committed:353096899, progress insts committed: 100911, IPC: 0.010081
18855828910626: Event_285: system.switch_cpus3 progress event, total committed:353969505, progress insts committed: 872606, IPC: 0.0871733
18855828910626: Event_284: system.switch_cpus2 progress event, total committed:355927119, progress insts committed: 952928, IPC: 0.0951975
18855828910626: Event_283: system.switch_cpus1 progress event, total committed:353469396, progress insts committed: 400694, IPC: 0.0400293
18855828910626: Event_282: system.switch_cpus0 progress event, total committed:355970619, progress insts committed: 947888, IPC: 0.094694
18859162243959: Event_282: system.switch_cpus0 progress event, total committed:357131215, progress insts committed: 1160596, IPC: 0.115944
18859162243959: Event_283: system.switch_cpus1 progress event, total committed:354741891, progress insts committed: 1272495, IPC: 0.127122
18859162243959: Event_284: system.switch_cpus2 progress event, total committed:357086661, progress insts committed: 1159542, IPC: 0.115838
18859162243959: Event_285: system.switch_cpus3 progress event, total committed:355203351, progress insts committed: 1233846, IPC: 0.123261
18862495577292: Event_285: system.switch_cpus3 progress event, total committed:356437997, progress insts committed: 1234646, IPC: 0.123341
18862495577292: Event_284: system.switch_cpus2 progress event, total committed:360006462, progress insts committed: 2919801, IPC: 0.291688
18862495577292: Event_283: system.switch_cpus1 progress event, total committed:356012013, progress insts committed: 1270122, IPC: 0.126885
18862495577292: Event_282: system.switch_cpus0 progress event, total committed:360097994, progress insts committed: 2966779, IPC: 0.296381
18865828910625: Event_282: system.switch_cpus0 progress event, total committed:362516992, progress insts committed: 2418998, IPC: 0.241658
18865828910625: Event_283: system.switch_cpus1 progress event, total committed:357877166, progress insts committed: 1865153, IPC: 0.186329
18865828910625: Event_284: system.switch_cpus2 progress event, total committed:362499887, progress insts committed: 2493425, IPC: 0.249093
18865828910625: Event_285: system.switch_cpus3 progress event, total committed:358329615, progress insts committed: 1891618, IPC: 0.188973
18869162243958: Event_285: system.switch_cpus3 progress event, total committed:362489057, progress insts committed: 4159442, IPC: 0.415528
18869162243958: Event_284: system.switch_cpus2 progress event, total committed:366480590, progress insts committed: 3980703, IPC: 0.397672
18869162243958: Event_283: system.switch_cpus1 progress event, total committed:361992141, progress insts committed: 4114975, IPC: 0.411086
18869162243958: Event_282: system.switch_cpus0 progress event, total committed:366450808, progress insts committed: 3933816, IPC: 0.392988
18872495577291: Event_282: system.switch_cpus0 progress event, total committed:369751001, progress insts committed: 3300193, IPC: 0.329689
18872495577291: Event_283: system.switch_cpus1 progress event, total committed:366029982, progress insts committed: 4037841, IPC: 00.40338
18872495577291: Event_284: system.switch_cpus2 progress event, total committed:369747749, progress insts committed: 3267159, IPC: 0.326389
18872495577291: Event_285: system.switch_cpus3 progress event, total committed:366554185, progress insts committed: 4065128, IPC: 0.406106
18875828910624: Event_285: system.switch_cpus3 progress event, total committed:369695163, progress insts committed: 3140978, IPC: 0.313784
18875828910624: Event_284: system.switch_cpus2 progress event, total committed:370580529, progress insts committed: 832780, IPC: 0.0831947
18875828910624: Event_283: system.switch_cpus1 progress event, total committed:369560454, progress insts committed: 3530472, IPC: 0.352694
18875828910624: Event_282: system.switch_cpus0 progress event, total committed:370638459, progress insts committed: 887458, IPC: 0.0886571
18879162243957: Event_282: system.switch_cpus0 progress event, total committed:372422193, progress insts committed: 1783734, IPC: 0.178195
18879162243957: Event_283: system.switch_cpus1 progress event, total committed:369798610, progress insts committed: 238156, IPC: 0.0237918
18879162243957: Event_284: system.switch_cpus2 progress event, total committed:372357524, progress insts committed: 1776995, IPC: 0.177522
18879162243957: Event_285: system.switch_cpus3 progress event, total committed:369997073, progress insts committed: 301910, IPC: 0.0301608
18882495577290: Event_285: system.switch_cpus3 progress event, total committed:371407334, progress insts committed: 1410261, IPC: 0.140885
18882495577290: Event_284: system.switch_cpus2 progress event, total committed:377904784, progress insts committed: 5547260, IPC: 0.554171
18882495577290: Event_283: system.switch_cpus1 progress event, total committed:370927754, progress insts committed: 1129144, IPC: 0.112801
18882495577290: Event_282: system.switch_cpus0 progress event, total committed:377809253, progress insts committed: 5387060, IPC: 0.538167
18885828910623: Event_282: system.switch_cpus0 progress event, total committed:390199929, progress insts committed: 12390676, IPC: 01.23783
18885828910623: Event_283: system.switch_cpus1 progress event, total committed:375806373, progress insts committed: 4878619, IPC: 0.487374
18885828910623: Event_284: system.switch_cpus2 progress event, total committed:391324340, progress insts committed: 13419556, IPC: 01.34061
18885828910623: Event_285: system.switch_cpus3 progress event, total committed:376700896, progress insts committed: 5293562, IPC: 0.528827
18889162243956: Event_285: system.switch_cpus3 progress event, total committed:388677540, progress insts committed: 11976644, IPC: 01.19647
18889162243956: Event_284: system.switch_cpus2 progress event, total committed:414879302, progress insts committed: 23554962, IPC: 02.35314
18889162243956: Event_283: system.switch_cpus1 progress event, total committed:385068089, progress insts committed: 9261716, IPC: 0.925245
18889162243956: Event_282: system.switch_cpus0 progress event, total committed:413784513, progress insts committed: 23584584, IPC: 002.3561
18892495577289: Event_282: system.switch_cpus0 progress event, total committed:440997467, progress insts committed: 27212954, IPC: 02.71857
18892495577289: Event_283: system.switch_cpus1 progress event, total committed:411369693, progress insts committed: 26301604, IPC: 02.62753
18892495577289: Event_284: system.switch_cpus2 progress event, total committed:442048218, progress insts committed: 27168916, IPC: 02.71417
18892495577289: Event_285: system.switch_cpus3 progress event, total committed:413052619, progress insts committed: 24375079, IPC: 02.43507
Exiting @ tick 18894274323489 because a thread reached the max instruction count
