
---------- Begin Simulation Statistics ----------
final_tick                               18905935467339                       # Number of ticks from beginning of simulation (restored from checkpoints and never reset)
host_inst_rate                                  71128                       # Simulator instruction rate (inst/s)
host_mem_usage                               17865360                       # Number of bytes of host memory used
host_op_rate                                   127104                       # Simulator op (including micro ops) rate (op/s)
host_seconds                                 13835.27                       # Real time elapsed on the host
host_tick_rate                               49639316                       # Simulator tick rate (ticks/s)
sim_freq                                 1000000000000                       # Frequency of simulated ticks
sim_insts                                   984075571                       # Number of instructions simulated
sim_ops                                    1758513091                       # Number of ops (including micro ops) simulated
sim_seconds                                  0.686773                       # Number of seconds simulated
sim_ticks                                686773226313                       # Number of ticks simulated
system.cpu0.Branches                                3                       # Number of branches fetched
system.cpu0.committedInsts                         16                       # Number of instructions committed
system.cpu0.committedOps                           27                       # Number of ops (including micro ops) committed
system.cpu0.idle_fraction                           0                       # Percentage of idle cycles
system.cpu0.l2bus.snoop_filter.hit_multi_requests           14                       # Number of requests hitting in the snoop filter with multiple (>1) holders of the requested data.
system.cpu0.l2bus.snoop_filter.hit_multi_snoops            3                       # Number of snoops hitting in the snoop filter with multiple (>1) holders of the requested data.
system.cpu0.l2bus.snoop_filter.hit_single_requests     12104088                       # Number of requests hitting in the snoop filter with a single holder of the requested data.
system.cpu0.l2bus.snoop_filter.hit_single_snoops      6993699                       # Number of snoops hitting in the snoop filter with a single holder of the requested data.
system.cpu0.l2bus.snoop_filter.tot_requests     24201279                       # Total number of requests made to the snoop filter.
system.cpu0.l2bus.snoop_filter.tot_snoops      6993702                       # Total number of snoops made to the snoop filter.
system.cpu0.mmucache.mmubus.snoop_filter.hit_multi_requests            0                       # Number of requests hitting in the snoop filter with multiple (>1) holders of the requested data.
system.cpu0.mmucache.mmubus.snoop_filter.hit_multi_snoops            0                       # Number of snoops hitting in the snoop filter with multiple (>1) holders of the requested data.
system.cpu0.mmucache.mmubus.snoop_filter.hit_single_requests            0                       # Number of requests hitting in the snoop filter with a single holder of the requested data.
system.cpu0.mmucache.mmubus.snoop_filter.hit_single_snoops            0                       # Number of snoops hitting in the snoop filter with a single holder of the requested data.
system.cpu0.mmucache.mmubus.snoop_filter.tot_requests            0                       # Total number of requests made to the snoop filter.
system.cpu0.mmucache.mmubus.snoop_filter.tot_snoops            0                       # Total number of snoops made to the snoop filter.
system.cpu0.not_idle_fraction                       1                       # Percentage of non-idle cycles
system.cpu0.numCycles                              32                       # number of cpu cycles simulated
system.cpu0.numWorkItemsCompleted                   0                       # number of work items this cpu completed
system.cpu0.numWorkItemsStarted                     0                       # number of work items this cpu started
system.cpu0.num_busy_cycles                        32                       # Number of busy cycles
system.cpu0.num_cc_register_reads                  41                       # number of times the CC registers were read
system.cpu0.num_cc_register_writes                 10                       # number of times the CC registers were written
system.cpu0.num_conditional_control_insts            3                       # number of instructions that are conditional controls
system.cpu0.num_fp_alu_accesses                     9                       # Number of float alu accesses
system.cpu0.num_fp_insts                            9                       # number of float instructions
system.cpu0.num_fp_register_reads                  16                       # number of times the floating registers were read
system.cpu0.num_fp_register_writes                  7                       # number of times the floating registers were written
system.cpu0.num_func_calls                          0                       # number of times a function call or return occured
system.cpu0.num_idle_cycles                         0                       # Number of idle cycles
system.cpu0.num_int_alu_accesses                   19                       # Number of integer alu accesses
system.cpu0.num_int_insts                          19                       # number of integer instructions
system.cpu0.num_int_register_reads                 34                       # number of times the integer registers were read
system.cpu0.num_int_register_writes                15                       # number of times the integer registers were written
system.cpu0.num_load_insts                          2                       # Number of load instructions
system.cpu0.num_mem_refs                            2                       # number of memory refs
system.cpu0.num_store_insts                         0                       # Number of store instructions
system.cpu0.num_vec_alu_accesses                    0                       # Number of vector alu accesses
system.cpu0.num_vec_insts                           0                       # number of vector instructions
system.cpu0.num_vec_register_reads                  0                       # number of times the vector registers were read
system.cpu0.num_vec_register_writes                 0                       # number of times the vector registers were written
system.cpu0.op_class::No_OpClass                    0      0.00%      0.00% # Class of executed instruction
system.cpu0.op_class::IntAlu                       17     62.96%     62.96% # Class of executed instruction
system.cpu0.op_class::IntMult                       0      0.00%     62.96% # Class of executed instruction
system.cpu0.op_class::IntDiv                        0      0.00%     62.96% # Class of executed instruction
system.cpu0.op_class::FloatAdd                      2      7.41%     70.37% # Class of executed instruction
system.cpu0.op_class::FloatCmp                      0      0.00%     70.37% # Class of executed instruction
system.cpu0.op_class::FloatCvt                      0      0.00%     70.37% # Class of executed instruction
system.cpu0.op_class::FloatMult                     0      0.00%     70.37% # Class of executed instruction
system.cpu0.op_class::FloatMultAcc                  0      0.00%     70.37% # Class of executed instruction
system.cpu0.op_class::FloatDiv                      0      0.00%     70.37% # Class of executed instruction
system.cpu0.op_class::FloatMisc                     0      0.00%     70.37% # Class of executed instruction
system.cpu0.op_class::FloatSqrt                     0      0.00%     70.37% # Class of executed instruction
system.cpu0.op_class::SimdAdd                       0      0.00%     70.37% # Class of executed instruction
system.cpu0.op_class::SimdAddAcc                    0      0.00%     70.37% # Class of executed instruction
system.cpu0.op_class::SimdAlu                       0      0.00%     70.37% # Class of executed instruction
system.cpu0.op_class::SimdCmp                       0      0.00%     70.37% # Class of executed instruction
system.cpu0.op_class::SimdCvt                       0      0.00%     70.37% # Class of executed instruction
system.cpu0.op_class::SimdMisc                      0      0.00%     70.37% # Class of executed instruction
system.cpu0.op_class::SimdMult                      0      0.00%     70.37% # Class of executed instruction
system.cpu0.op_class::SimdMultAcc                   0      0.00%     70.37% # Class of executed instruction
system.cpu0.op_class::SimdShift                     0      0.00%     70.37% # Class of executed instruction
system.cpu0.op_class::SimdShiftAcc                  0      0.00%     70.37% # Class of executed instruction
system.cpu0.op_class::SimdDiv                       0      0.00%     70.37% # Class of executed instruction
system.cpu0.op_class::SimdSqrt                      0      0.00%     70.37% # Class of executed instruction
system.cpu0.op_class::SimdFloatAdd                  2      7.41%     77.78% # Class of executed instruction
system.cpu0.op_class::SimdFloatAlu                  0      0.00%     77.78% # Class of executed instruction
system.cpu0.op_class::SimdFloatCmp                  1      3.70%     81.48% # Class of executed instruction
system.cpu0.op_class::SimdFloatCvt                  2      7.41%     88.89% # Class of executed instruction
system.cpu0.op_class::SimdFloatDiv                  0      0.00%     88.89% # Class of executed instruction
system.cpu0.op_class::SimdFloatMisc                 0      0.00%     88.89% # Class of executed instruction
system.cpu0.op_class::SimdFloatMult                 1      3.70%     92.59% # Class of executed instruction
system.cpu0.op_class::SimdFloatMultAcc              0      0.00%     92.59% # Class of executed instruction
system.cpu0.op_class::SimdFloatSqrt                 0      0.00%     92.59% # Class of executed instruction
system.cpu0.op_class::SimdReduceAdd                 0      0.00%     92.59% # Class of executed instruction
system.cpu0.op_class::SimdReduceAlu                 0      0.00%     92.59% # Class of executed instruction
system.cpu0.op_class::SimdReduceCmp                 0      0.00%     92.59% # Class of executed instruction
system.cpu0.op_class::SimdFloatReduceAdd            0      0.00%     92.59% # Class of executed instruction
system.cpu0.op_class::SimdFloatReduceCmp            0      0.00%     92.59% # Class of executed instruction
system.cpu0.op_class::SimdAes                       0      0.00%     92.59% # Class of executed instruction
system.cpu0.op_class::SimdAesMix                    0      0.00%     92.59% # Class of executed instruction
system.cpu0.op_class::SimdSha1Hash                  0      0.00%     92.59% # Class of executed instruction
system.cpu0.op_class::SimdSha1Hash2                 0      0.00%     92.59% # Class of executed instruction
system.cpu0.op_class::SimdSha256Hash                0      0.00%     92.59% # Class of executed instruction
system.cpu0.op_class::SimdSha256Hash2               0      0.00%     92.59% # Class of executed instruction
system.cpu0.op_class::SimdShaSigma2                 0      0.00%     92.59% # Class of executed instruction
system.cpu0.op_class::SimdShaSigma3                 0      0.00%     92.59% # Class of executed instruction
system.cpu0.op_class::SimdPredAlu                   0      0.00%     92.59% # Class of executed instruction
system.cpu0.op_class::MemRead                       1      3.70%     96.30% # Class of executed instruction
system.cpu0.op_class::MemWrite                      0      0.00%     96.30% # Class of executed instruction
system.cpu0.op_class::FloatMemRead                  1      3.70%    100.00% # Class of executed instruction
system.cpu0.op_class::FloatMemWrite                 0      0.00%    100.00% # Class of executed instruction
system.cpu0.op_class::IprAccess                     0      0.00%    100.00% # Class of executed instruction
system.cpu0.op_class::InstPrefetch                  0      0.00%    100.00% # Class of executed instruction
system.cpu0.op_class::total                        27                       # Class of executed instruction
system.cpu0.workload.numSyscalls                    0                       # Number of system calls
system.cpu1.Branches                                1                       # Number of branches fetched
system.cpu1.committedInsts                         16                       # Number of instructions committed
system.cpu1.committedOps                           23                       # Number of ops (including micro ops) committed
system.cpu1.idle_fraction                           0                       # Percentage of idle cycles
system.cpu1.l2bus.snoop_filter.hit_multi_requests           15                       # Number of requests hitting in the snoop filter with multiple (>1) holders of the requested data.
system.cpu1.l2bus.snoop_filter.hit_multi_snoops            0                       # Number of snoops hitting in the snoop filter with multiple (>1) holders of the requested data.
system.cpu1.l2bus.snoop_filter.hit_single_requests     12234513                       # Number of requests hitting in the snoop filter with a single holder of the requested data.
system.cpu1.l2bus.snoop_filter.hit_single_snoops         3869                       # Number of snoops hitting in the snoop filter with a single holder of the requested data.
system.cpu1.l2bus.snoop_filter.tot_requests     24466686                       # Total number of requests made to the snoop filter.
system.cpu1.l2bus.snoop_filter.tot_snoops         3869                       # Total number of snoops made to the snoop filter.
system.cpu1.mmucache.mmubus.snoop_filter.hit_multi_requests            0                       # Number of requests hitting in the snoop filter with multiple (>1) holders of the requested data.
system.cpu1.mmucache.mmubus.snoop_filter.hit_multi_snoops            0                       # Number of snoops hitting in the snoop filter with multiple (>1) holders of the requested data.
system.cpu1.mmucache.mmubus.snoop_filter.hit_single_requests            0                       # Number of requests hitting in the snoop filter with a single holder of the requested data.
system.cpu1.mmucache.mmubus.snoop_filter.hit_single_snoops            0                       # Number of snoops hitting in the snoop filter with a single holder of the requested data.
system.cpu1.mmucache.mmubus.snoop_filter.tot_requests            0                       # Total number of requests made to the snoop filter.
system.cpu1.mmucache.mmubus.snoop_filter.tot_snoops            0                       # Total number of snoops made to the snoop filter.
system.cpu1.not_idle_fraction                       1                       # Percentage of non-idle cycles
system.cpu1.numCycles                              31                       # number of cpu cycles simulated
system.cpu1.numWorkItemsCompleted                   0                       # number of work items this cpu completed
system.cpu1.numWorkItemsStarted                     0                       # number of work items this cpu started
system.cpu1.num_busy_cycles                        31                       # Number of busy cycles
system.cpu1.num_cc_register_reads                   7                       # number of times the CC registers were read
system.cpu1.num_cc_register_writes                  2                       # number of times the CC registers were written
system.cpu1.num_conditional_control_insts            1                       # number of instructions that are conditional controls
system.cpu1.num_fp_alu_accesses                    20                       # Number of float alu accesses
system.cpu1.num_fp_insts                           20                       # number of float instructions
system.cpu1.num_fp_register_reads                  43                       # number of times the floating registers were read
system.cpu1.num_fp_register_writes                 19                       # number of times the floating registers were written
system.cpu1.num_func_calls                          0                       # number of times a function call or return occured
system.cpu1.num_idle_cycles                         0                       # Number of idle cycles
system.cpu1.num_int_alu_accesses                    5                       # Number of integer alu accesses
system.cpu1.num_int_insts                           5                       # number of integer instructions
system.cpu1.num_int_register_reads                 10                       # number of times the integer registers were read
system.cpu1.num_int_register_writes                 2                       # number of times the integer registers were written
system.cpu1.num_load_insts                          2                       # Number of load instructions
system.cpu1.num_mem_refs                            2                       # number of memory refs
system.cpu1.num_store_insts                         0                       # Number of store instructions
system.cpu1.num_vec_alu_accesses                    0                       # Number of vector alu accesses
system.cpu1.num_vec_insts                           0                       # number of vector instructions
system.cpu1.num_vec_register_reads                  0                       # number of times the vector registers were read
system.cpu1.num_vec_register_writes                 0                       # number of times the vector registers were written
system.cpu1.op_class::No_OpClass                    0      0.00%      0.00% # Class of executed instruction
system.cpu1.op_class::IntAlu                        7     30.43%     30.43% # Class of executed instruction
system.cpu1.op_class::IntMult                       0      0.00%     30.43% # Class of executed instruction
system.cpu1.op_class::IntDiv                        0      0.00%     30.43% # Class of executed instruction
system.cpu1.op_class::FloatAdd                      2      8.70%     39.13% # Class of executed instruction
system.cpu1.op_class::FloatCmp                      0      0.00%     39.13% # Class of executed instruction
system.cpu1.op_class::FloatCvt                      0      0.00%     39.13% # Class of executed instruction
system.cpu1.op_class::FloatMult                     0      0.00%     39.13% # Class of executed instruction
system.cpu1.op_class::FloatMultAcc                  0      0.00%     39.13% # Class of executed instruction
system.cpu1.op_class::FloatDiv                      0      0.00%     39.13% # Class of executed instruction
system.cpu1.op_class::FloatMisc                     0      0.00%     39.13% # Class of executed instruction
system.cpu1.op_class::FloatSqrt                     0      0.00%     39.13% # Class of executed instruction
system.cpu1.op_class::SimdAdd                       0      0.00%     39.13% # Class of executed instruction
system.cpu1.op_class::SimdAddAcc                    0      0.00%     39.13% # Class of executed instruction
system.cpu1.op_class::SimdAlu                       0      0.00%     39.13% # Class of executed instruction
system.cpu1.op_class::SimdCmp                       0      0.00%     39.13% # Class of executed instruction
system.cpu1.op_class::SimdCvt                       0      0.00%     39.13% # Class of executed instruction
system.cpu1.op_class::SimdMisc                      0      0.00%     39.13% # Class of executed instruction
system.cpu1.op_class::SimdMult                      0      0.00%     39.13% # Class of executed instruction
system.cpu1.op_class::SimdMultAcc                   0      0.00%     39.13% # Class of executed instruction
system.cpu1.op_class::SimdShift                     0      0.00%     39.13% # Class of executed instruction
system.cpu1.op_class::SimdShiftAcc                  0      0.00%     39.13% # Class of executed instruction
system.cpu1.op_class::SimdDiv                       0      0.00%     39.13% # Class of executed instruction
system.cpu1.op_class::SimdSqrt                      0      0.00%     39.13% # Class of executed instruction
system.cpu1.op_class::SimdFloatAdd                  5     21.74%     60.87% # Class of executed instruction
system.cpu1.op_class::SimdFloatAlu                  0      0.00%     60.87% # Class of executed instruction
system.cpu1.op_class::SimdFloatCmp                  1      4.35%     65.22% # Class of executed instruction
system.cpu1.op_class::SimdFloatCvt                  1      4.35%     69.57% # Class of executed instruction
system.cpu1.op_class::SimdFloatDiv                  0      0.00%     69.57% # Class of executed instruction
system.cpu1.op_class::SimdFloatMisc                 0      0.00%     69.57% # Class of executed instruction
system.cpu1.op_class::SimdFloatMult                 5     21.74%     91.30% # Class of executed instruction
system.cpu1.op_class::SimdFloatMultAcc              0      0.00%     91.30% # Class of executed instruction
system.cpu1.op_class::SimdFloatSqrt                 0      0.00%     91.30% # Class of executed instruction
system.cpu1.op_class::SimdReduceAdd                 0      0.00%     91.30% # Class of executed instruction
system.cpu1.op_class::SimdReduceAlu                 0      0.00%     91.30% # Class of executed instruction
system.cpu1.op_class::SimdReduceCmp                 0      0.00%     91.30% # Class of executed instruction
system.cpu1.op_class::SimdFloatReduceAdd            0      0.00%     91.30% # Class of executed instruction
system.cpu1.op_class::SimdFloatReduceCmp            0      0.00%     91.30% # Class of executed instruction
system.cpu1.op_class::SimdAes                       0      0.00%     91.30% # Class of executed instruction
system.cpu1.op_class::SimdAesMix                    0      0.00%     91.30% # Class of executed instruction
system.cpu1.op_class::SimdSha1Hash                  0      0.00%     91.30% # Class of executed instruction
system.cpu1.op_class::SimdSha1Hash2                 0      0.00%     91.30% # Class of executed instruction
system.cpu1.op_class::SimdSha256Hash                0      0.00%     91.30% # Class of executed instruction
system.cpu1.op_class::SimdSha256Hash2               0      0.00%     91.30% # Class of executed instruction
system.cpu1.op_class::SimdShaSigma2                 0      0.00%     91.30% # Class of executed instruction
system.cpu1.op_class::SimdShaSigma3                 0      0.00%     91.30% # Class of executed instruction
system.cpu1.op_class::SimdPredAlu                   0      0.00%     91.30% # Class of executed instruction
system.cpu1.op_class::MemRead                       0      0.00%     91.30% # Class of executed instruction
system.cpu1.op_class::MemWrite                      0      0.00%     91.30% # Class of executed instruction
system.cpu1.op_class::FloatMemRead                  2      8.70%    100.00% # Class of executed instruction
system.cpu1.op_class::FloatMemWrite                 0      0.00%    100.00% # Class of executed instruction
system.cpu1.op_class::IprAccess                     0      0.00%    100.00% # Class of executed instruction
system.cpu1.op_class::InstPrefetch                  0      0.00%    100.00% # Class of executed instruction
system.cpu1.op_class::total                        23                       # Class of executed instruction
system.cpu1.workload.numSyscalls                    0                       # Number of system calls
system.cpu2.Branches                                1                       # Number of branches fetched
system.cpu2.committedInsts                         16                       # Number of instructions committed
system.cpu2.committedOps                           23                       # Number of ops (including micro ops) committed
system.cpu2.idle_fraction                           0                       # Percentage of idle cycles
system.cpu2.l2bus.snoop_filter.hit_multi_requests           15                       # Number of requests hitting in the snoop filter with multiple (>1) holders of the requested data.
system.cpu2.l2bus.snoop_filter.hit_multi_snoops            2                       # Number of snoops hitting in the snoop filter with multiple (>1) holders of the requested data.
system.cpu2.l2bus.snoop_filter.hit_single_requests     12114853                       # Number of requests hitting in the snoop filter with a single holder of the requested data.
system.cpu2.l2bus.snoop_filter.hit_single_snoops      6997556                       # Number of snoops hitting in the snoop filter with a single holder of the requested data.
system.cpu2.l2bus.snoop_filter.tot_requests     24222130                       # Total number of requests made to the snoop filter.
system.cpu2.l2bus.snoop_filter.tot_snoops      6997558                       # Total number of snoops made to the snoop filter.
system.cpu2.mmucache.mmubus.snoop_filter.hit_multi_requests            0                       # Number of requests hitting in the snoop filter with multiple (>1) holders of the requested data.
system.cpu2.mmucache.mmubus.snoop_filter.hit_multi_snoops            0                       # Number of snoops hitting in the snoop filter with multiple (>1) holders of the requested data.
system.cpu2.mmucache.mmubus.snoop_filter.hit_single_requests            0                       # Number of requests hitting in the snoop filter with a single holder of the requested data.
system.cpu2.mmucache.mmubus.snoop_filter.hit_single_snoops            0                       # Number of snoops hitting in the snoop filter with a single holder of the requested data.
system.cpu2.mmucache.mmubus.snoop_filter.tot_requests            0                       # Total number of requests made to the snoop filter.
system.cpu2.mmucache.mmubus.snoop_filter.tot_snoops            0                       # Total number of snoops made to the snoop filter.
system.cpu2.not_idle_fraction                       1                       # Percentage of non-idle cycles
system.cpu2.numCycles                              31                       # number of cpu cycles simulated
system.cpu2.numWorkItemsCompleted                   0                       # number of work items this cpu completed
system.cpu2.numWorkItemsStarted                     0                       # number of work items this cpu started
system.cpu2.num_busy_cycles                        31                       # Number of busy cycles
system.cpu2.num_cc_register_reads                   7                       # number of times the CC registers were read
system.cpu2.num_cc_register_writes                  2                       # number of times the CC registers were written
system.cpu2.num_conditional_control_insts            1                       # number of instructions that are conditional controls
system.cpu2.num_fp_alu_accesses                    20                       # Number of float alu accesses
system.cpu2.num_fp_insts                           20                       # number of float instructions
system.cpu2.num_fp_register_reads                  43                       # number of times the floating registers were read
system.cpu2.num_fp_register_writes                 19                       # number of times the floating registers were written
system.cpu2.num_func_calls                          0                       # number of times a function call or return occured
system.cpu2.num_idle_cycles                         0                       # Number of idle cycles
system.cpu2.num_int_alu_accesses                    5                       # Number of integer alu accesses
system.cpu2.num_int_insts                           5                       # number of integer instructions
system.cpu2.num_int_register_reads                 10                       # number of times the integer registers were read
system.cpu2.num_int_register_writes                 2                       # number of times the integer registers were written
system.cpu2.num_load_insts                          2                       # Number of load instructions
system.cpu2.num_mem_refs                            2                       # number of memory refs
system.cpu2.num_store_insts                         0                       # Number of store instructions
system.cpu2.num_vec_alu_accesses                    0                       # Number of vector alu accesses
system.cpu2.num_vec_insts                           0                       # number of vector instructions
system.cpu2.num_vec_register_reads                  0                       # number of times the vector registers were read
system.cpu2.num_vec_register_writes                 0                       # number of times the vector registers were written
system.cpu2.op_class::No_OpClass                    0      0.00%      0.00% # Class of executed instruction
system.cpu2.op_class::IntAlu                        7     30.43%     30.43% # Class of executed instruction
system.cpu2.op_class::IntMult                       0      0.00%     30.43% # Class of executed instruction
system.cpu2.op_class::IntDiv                        0      0.00%     30.43% # Class of executed instruction
system.cpu2.op_class::FloatAdd                      2      8.70%     39.13% # Class of executed instruction
system.cpu2.op_class::FloatCmp                      0      0.00%     39.13% # Class of executed instruction
system.cpu2.op_class::FloatCvt                      0      0.00%     39.13% # Class of executed instruction
system.cpu2.op_class::FloatMult                     0      0.00%     39.13% # Class of executed instruction
system.cpu2.op_class::FloatMultAcc                  0      0.00%     39.13% # Class of executed instruction
system.cpu2.op_class::FloatDiv                      0      0.00%     39.13% # Class of executed instruction
system.cpu2.op_class::FloatMisc                     0      0.00%     39.13% # Class of executed instruction
system.cpu2.op_class::FloatSqrt                     0      0.00%     39.13% # Class of executed instruction
system.cpu2.op_class::SimdAdd                       0      0.00%     39.13% # Class of executed instruction
system.cpu2.op_class::SimdAddAcc                    0      0.00%     39.13% # Class of executed instruction
system.cpu2.op_class::SimdAlu                       0      0.00%     39.13% # Class of executed instruction
system.cpu2.op_class::SimdCmp                       0      0.00%     39.13% # Class of executed instruction
system.cpu2.op_class::SimdCvt                       0      0.00%     39.13% # Class of executed instruction
system.cpu2.op_class::SimdMisc                      0      0.00%     39.13% # Class of executed instruction
system.cpu2.op_class::SimdMult                      0      0.00%     39.13% # Class of executed instruction
system.cpu2.op_class::SimdMultAcc                   0      0.00%     39.13% # Class of executed instruction
system.cpu2.op_class::SimdShift                     0      0.00%     39.13% # Class of executed instruction
system.cpu2.op_class::SimdShiftAcc                  0      0.00%     39.13% # Class of executed instruction
system.cpu2.op_class::SimdDiv                       0      0.00%     39.13% # Class of executed instruction
system.cpu2.op_class::SimdSqrt                      0      0.00%     39.13% # Class of executed instruction
system.cpu2.op_class::SimdFloatAdd                  5     21.74%     60.87% # Class of executed instruction
system.cpu2.op_class::SimdFloatAlu                  0      0.00%     60.87% # Class of executed instruction
system.cpu2.op_class::SimdFloatCmp                  1      4.35%     65.22% # Class of executed instruction
system.cpu2.op_class::SimdFloatCvt                  1      4.35%     69.57% # Class of executed instruction
system.cpu2.op_class::SimdFloatDiv                  0      0.00%     69.57% # Class of executed instruction
system.cpu2.op_class::SimdFloatMisc                 0      0.00%     69.57% # Class of executed instruction
system.cpu2.op_class::SimdFloatMult                 5     21.74%     91.30% # Class of executed instruction
system.cpu2.op_class::SimdFloatMultAcc              0      0.00%     91.30% # Class of executed instruction
system.cpu2.op_class::SimdFloatSqrt                 0      0.00%     91.30% # Class of executed instruction
system.cpu2.op_class::SimdReduceAdd                 0      0.00%     91.30% # Class of executed instruction
system.cpu2.op_class::SimdReduceAlu                 0      0.00%     91.30% # Class of executed instruction
system.cpu2.op_class::SimdReduceCmp                 0      0.00%     91.30% # Class of executed instruction
system.cpu2.op_class::SimdFloatReduceAdd            0      0.00%     91.30% # Class of executed instruction
system.cpu2.op_class::SimdFloatReduceCmp            0      0.00%     91.30% # Class of executed instruction
system.cpu2.op_class::SimdAes                       0      0.00%     91.30% # Class of executed instruction
system.cpu2.op_class::SimdAesMix                    0      0.00%     91.30% # Class of executed instruction
system.cpu2.op_class::SimdSha1Hash                  0      0.00%     91.30% # Class of executed instruction
system.cpu2.op_class::SimdSha1Hash2                 0      0.00%     91.30% # Class of executed instruction
system.cpu2.op_class::SimdSha256Hash                0      0.00%     91.30% # Class of executed instruction
system.cpu2.op_class::SimdSha256Hash2               0      0.00%     91.30% # Class of executed instruction
system.cpu2.op_class::SimdShaSigma2                 0      0.00%     91.30% # Class of executed instruction
system.cpu2.op_class::SimdShaSigma3                 0      0.00%     91.30% # Class of executed instruction
system.cpu2.op_class::SimdPredAlu                   0      0.00%     91.30% # Class of executed instruction
system.cpu2.op_class::MemRead                       0      0.00%     91.30% # Class of executed instruction
system.cpu2.op_class::MemWrite                      0      0.00%     91.30% # Class of executed instruction
system.cpu2.op_class::FloatMemRead                  2      8.70%    100.00% # Class of executed instruction
system.cpu2.op_class::FloatMemWrite                 0      0.00%    100.00% # Class of executed instruction
system.cpu2.op_class::IprAccess                     0      0.00%    100.00% # Class of executed instruction
system.cpu2.op_class::InstPrefetch                  0      0.00%    100.00% # Class of executed instruction
system.cpu2.op_class::total                        23                       # Class of executed instruction
system.cpu2.workload.numSyscalls                    0                       # Number of system calls
system.cpu3.Branches                                1                       # Number of branches fetched
system.cpu3.committedInsts                         16                       # Number of instructions committed
system.cpu3.committedOps                           23                       # Number of ops (including micro ops) committed
system.cpu3.idle_fraction                           0                       # Percentage of idle cycles
system.cpu3.l2bus.snoop_filter.hit_multi_requests           20                       # Number of requests hitting in the snoop filter with multiple (>1) holders of the requested data.
system.cpu3.l2bus.snoop_filter.hit_multi_snoops            0                       # Number of snoops hitting in the snoop filter with multiple (>1) holders of the requested data.
system.cpu3.l2bus.snoop_filter.hit_single_requests     12225355                       # Number of requests hitting in the snoop filter with a single holder of the requested data.
system.cpu3.l2bus.snoop_filter.hit_single_snoops         3869                       # Number of snoops hitting in the snoop filter with a single holder of the requested data.
system.cpu3.l2bus.snoop_filter.tot_requests     24448404                       # Total number of requests made to the snoop filter.
system.cpu3.l2bus.snoop_filter.tot_snoops         3869                       # Total number of snoops made to the snoop filter.
system.cpu3.mmucache.mmubus.snoop_filter.hit_multi_requests            0                       # Number of requests hitting in the snoop filter with multiple (>1) holders of the requested data.
system.cpu3.mmucache.mmubus.snoop_filter.hit_multi_snoops            0                       # Number of snoops hitting in the snoop filter with multiple (>1) holders of the requested data.
system.cpu3.mmucache.mmubus.snoop_filter.hit_single_requests            0                       # Number of requests hitting in the snoop filter with a single holder of the requested data.
system.cpu3.mmucache.mmubus.snoop_filter.hit_single_snoops            0                       # Number of snoops hitting in the snoop filter with a single holder of the requested data.
system.cpu3.mmucache.mmubus.snoop_filter.tot_requests            0                       # Total number of requests made to the snoop filter.
system.cpu3.mmucache.mmubus.snoop_filter.tot_snoops            0                       # Total number of snoops made to the snoop filter.
system.cpu3.not_idle_fraction                       1                       # Percentage of non-idle cycles
system.cpu3.numCycles                              31                       # number of cpu cycles simulated
system.cpu3.numWorkItemsCompleted                   0                       # number of work items this cpu completed
system.cpu3.numWorkItemsStarted                     0                       # number of work items this cpu started
system.cpu3.num_busy_cycles                        31                       # Number of busy cycles
system.cpu3.num_cc_register_reads                   7                       # number of times the CC registers were read
system.cpu3.num_cc_register_writes                  2                       # number of times the CC registers were written
system.cpu3.num_conditional_control_insts            1                       # number of instructions that are conditional controls
system.cpu3.num_fp_alu_accesses                    20                       # Number of float alu accesses
system.cpu3.num_fp_insts                           20                       # number of float instructions
system.cpu3.num_fp_register_reads                  43                       # number of times the floating registers were read
system.cpu3.num_fp_register_writes                 19                       # number of times the floating registers were written
system.cpu3.num_func_calls                          0                       # number of times a function call or return occured
system.cpu3.num_idle_cycles                         0                       # Number of idle cycles
system.cpu3.num_int_alu_accesses                    5                       # Number of integer alu accesses
system.cpu3.num_int_insts                           5                       # number of integer instructions
system.cpu3.num_int_register_reads                 10                       # number of times the integer registers were read
system.cpu3.num_int_register_writes                 2                       # number of times the integer registers were written
system.cpu3.num_load_insts                          2                       # Number of load instructions
system.cpu3.num_mem_refs                            2                       # number of memory refs
system.cpu3.num_store_insts                         0                       # Number of store instructions
system.cpu3.num_vec_alu_accesses                    0                       # Number of vector alu accesses
system.cpu3.num_vec_insts                           0                       # number of vector instructions
system.cpu3.num_vec_register_reads                  0                       # number of times the vector registers were read
system.cpu3.num_vec_register_writes                 0                       # number of times the vector registers were written
system.cpu3.op_class::No_OpClass                    0      0.00%      0.00% # Class of executed instruction
system.cpu3.op_class::IntAlu                        7     30.43%     30.43% # Class of executed instruction
system.cpu3.op_class::IntMult                       0      0.00%     30.43% # Class of executed instruction
system.cpu3.op_class::IntDiv                        0      0.00%     30.43% # Class of executed instruction
system.cpu3.op_class::FloatAdd                      2      8.70%     39.13% # Class of executed instruction
system.cpu3.op_class::FloatCmp                      0      0.00%     39.13% # Class of executed instruction
system.cpu3.op_class::FloatCvt                      0      0.00%     39.13% # Class of executed instruction
system.cpu3.op_class::FloatMult                     0      0.00%     39.13% # Class of executed instruction
system.cpu3.op_class::FloatMultAcc                  0      0.00%     39.13% # Class of executed instruction
system.cpu3.op_class::FloatDiv                      0      0.00%     39.13% # Class of executed instruction
system.cpu3.op_class::FloatMisc                     0      0.00%     39.13% # Class of executed instruction
system.cpu3.op_class::FloatSqrt                     0      0.00%     39.13% # Class of executed instruction
system.cpu3.op_class::SimdAdd                       0      0.00%     39.13% # Class of executed instruction
system.cpu3.op_class::SimdAddAcc                    0      0.00%     39.13% # Class of executed instruction
system.cpu3.op_class::SimdAlu                       0      0.00%     39.13% # Class of executed instruction
system.cpu3.op_class::SimdCmp                       0      0.00%     39.13% # Class of executed instruction
system.cpu3.op_class::SimdCvt                       0      0.00%     39.13% # Class of executed instruction
system.cpu3.op_class::SimdMisc                      0      0.00%     39.13% # Class of executed instruction
system.cpu3.op_class::SimdMult                      0      0.00%     39.13% # Class of executed instruction
system.cpu3.op_class::SimdMultAcc                   0      0.00%     39.13% # Class of executed instruction
system.cpu3.op_class::SimdShift                     0      0.00%     39.13% # Class of executed instruction
system.cpu3.op_class::SimdShiftAcc                  0      0.00%     39.13% # Class of executed instruction
system.cpu3.op_class::SimdDiv                       0      0.00%     39.13% # Class of executed instruction
system.cpu3.op_class::SimdSqrt                      0      0.00%     39.13% # Class of executed instruction
system.cpu3.op_class::SimdFloatAdd                  5     21.74%     60.87% # Class of executed instruction
system.cpu3.op_class::SimdFloatAlu                  0      0.00%     60.87% # Class of executed instruction
system.cpu3.op_class::SimdFloatCmp                  1      4.35%     65.22% # Class of executed instruction
system.cpu3.op_class::SimdFloatCvt                  1      4.35%     69.57% # Class of executed instruction
system.cpu3.op_class::SimdFloatDiv                  0      0.00%     69.57% # Class of executed instruction
system.cpu3.op_class::SimdFloatMisc                 0      0.00%     69.57% # Class of executed instruction
system.cpu3.op_class::SimdFloatMult                 5     21.74%     91.30% # Class of executed instruction
system.cpu3.op_class::SimdFloatMultAcc              0      0.00%     91.30% # Class of executed instruction
system.cpu3.op_class::SimdFloatSqrt                 0      0.00%     91.30% # Class of executed instruction
system.cpu3.op_class::SimdReduceAdd                 0      0.00%     91.30% # Class of executed instruction
system.cpu3.op_class::SimdReduceAlu                 0      0.00%     91.30% # Class of executed instruction
system.cpu3.op_class::SimdReduceCmp                 0      0.00%     91.30% # Class of executed instruction
system.cpu3.op_class::SimdFloatReduceAdd            0      0.00%     91.30% # Class of executed instruction
system.cpu3.op_class::SimdFloatReduceCmp            0      0.00%     91.30% # Class of executed instruction
system.cpu3.op_class::SimdAes                       0      0.00%     91.30% # Class of executed instruction
system.cpu3.op_class::SimdAesMix                    0      0.00%     91.30% # Class of executed instruction
system.cpu3.op_class::SimdSha1Hash                  0      0.00%     91.30% # Class of executed instruction
system.cpu3.op_class::SimdSha1Hash2                 0      0.00%     91.30% # Class of executed instruction
system.cpu3.op_class::SimdSha256Hash                0      0.00%     91.30% # Class of executed instruction
system.cpu3.op_class::SimdSha256Hash2               0      0.00%     91.30% # Class of executed instruction
system.cpu3.op_class::SimdShaSigma2                 0      0.00%     91.30% # Class of executed instruction
system.cpu3.op_class::SimdShaSigma3                 0      0.00%     91.30% # Class of executed instruction
system.cpu3.op_class::SimdPredAlu                   0      0.00%     91.30% # Class of executed instruction
system.cpu3.op_class::MemRead                       0      0.00%     91.30% # Class of executed instruction
system.cpu3.op_class::MemWrite                      0      0.00%     91.30% # Class of executed instruction
system.cpu3.op_class::FloatMemRead                  2      8.70%    100.00% # Class of executed instruction
system.cpu3.op_class::FloatMemWrite                 0      0.00%    100.00% # Class of executed instruction
system.cpu3.op_class::IprAccess                     0      0.00%    100.00% # Class of executed instruction
system.cpu3.op_class::InstPrefetch                  0      0.00%    100.00% # Class of executed instruction
system.cpu3.op_class::total                        23                       # Class of executed instruction
system.cpu3.workload.numSyscalls                    0                       # Number of system calls
system.l3bus.snoop_filter.hit_multi_requests            0                       # Number of requests hitting in the snoop filter with multiple (>1) holders of the requested data.
system.l3bus.snoop_filter.hit_multi_snoops            0                       # Number of snoops hitting in the snoop filter with multiple (>1) holders of the requested data.
system.l3bus.snoop_filter.hit_single_requests     43585552                       # Number of requests hitting in the snoop filter with a single holder of the requested data.
system.l3bus.snoop_filter.hit_single_snoops            0                       # Number of snoops hitting in the snoop filter with a single holder of the requested data.
system.l3bus.snoop_filter.tot_requests       87125254                       # Total number of requests made to the snoop filter.
system.l3bus.snoop_filter.tot_snoops                0                       # Total number of snoops made to the snoop filter.
system.membus.snoop_filter.hit_multi_requests            0                       # Number of requests hitting in the snoop filter with multiple (>1) holders of the requested data.
system.membus.snoop_filter.hit_multi_snoops            0                       # Number of snoops hitting in the snoop filter with multiple (>1) holders of the requested data.
system.membus.snoop_filter.hit_single_requests     34620288                       # Number of requests hitting in the snoop filter with a single holder of the requested data.
system.membus.snoop_filter.hit_single_snoops            0                       # Number of snoops hitting in the snoop filter with a single holder of the requested data.
system.membus.snoop_filter.tot_requests      69310149                       # Total number of requests made to the snoop filter.
system.membus.snoop_filter.tot_snoops               0                       # Total number of snoops made to the snoop filter.
system.switch_cpus0.cc_regfile_reads        193242763                       # number of cc regfile reads
system.switch_cpus0.cc_regfile_writes       120575043                       # number of cc regfile writes
system.switch_cpus0.committedInsts          240720562                       # Number of Instructions Simulated
system.switch_cpus0.committedOps            429764012                       # Number of Ops (including micro ops) Simulated
system.switch_cpus0.cpi                      8.567536                       # CPI: Cycles Per Instruction
system.switch_cpus0.cpi_total                8.567536                       # CPI: Total CPI of All Threads
system.switch_cpus0.fp_regfile_reads        370560950                       # number of floating regfile reads
system.switch_cpus0.fp_regfile_writes       278772246                       # number of floating regfile writes
system.switch_cpus0.idleCycles                  81398                       # Total number of cycles that the CPU has spent unscheduled due to idling
system.switch_cpus0.iew.branchMispredicts       607016                       # Number of branch mispredicts detected at execute
system.switch_cpus0.iew.exec_branches        28371364                       # Number of branches executed
system.switch_cpus0.iew.exec_nop                    0                       # number of nop insts executed
system.switch_cpus0.iew.exec_rate            0.282943                       # Inst execution rate
system.switch_cpus0.iew.exec_refs           181696928                       # number of memory reference insts executed
system.switch_cpus0.iew.exec_stores          63462119                       # Number of stores executed
system.switch_cpus0.iew.exec_swp                    0                       # number of swp insts executed
system.switch_cpus0.iew.iewBlockCycles      364908962                       # Number of cycles IEW is blocking
system.switch_cpus0.iew.iewDispLoadInsts    112757057                       # Number of dispatched load instructions
system.switch_cpus0.iew.iewDispNonSpecInsts           92                       # Number of dispatched non-speculative instructions
system.switch_cpus0.iew.iewDispSquashedInsts         8386                       # Number of squashed instructions skipped by dispatch
system.switch_cpus0.iew.iewDispStoreInsts     64928275                       # Number of dispatched store instructions
system.switch_cpus0.iew.iewDispatchedInsts    587287210                       # Number of instructions dispatched to IQ
system.switch_cpus0.iew.iewExecLoadInsts    118234809                       # Number of load instructions executed
system.switch_cpus0.iew.iewExecSquashedInsts      1214940                       # Number of squashed instructions skipped in execute
system.switch_cpus0.iew.iewExecutedInsts    583537255                       # Number of executed instructions
system.switch_cpus0.iew.iewIQFullEvents       1731738                       # Number of times the IQ has become full, causing a stall
system.switch_cpus0.iew.iewIdleCycles               0                       # Number of cycles IEW is idle
system.switch_cpus0.iew.iewLSQFullEvents    412507033                       # Number of times the LSQ has become full, causing a stall
system.switch_cpus0.iew.iewSquashCycles       1640858                       # Number of cycles IEW is squashing
system.switch_cpus0.iew.iewUnblockCycles    415231712                       # Number of cycles IEW is unblocking
system.switch_cpus0.iew.memOrderViolationEvents         6339                       # Number of memory order violations
system.switch_cpus0.iew.predictedNotTakenIncorrect       304506                       # Number of branches that were predicted not taken incorrectly
system.switch_cpus0.iew.predictedTakenIncorrect       302510                       # Number of branches that were predicted taken incorrectly
system.switch_cpus0.iew.wb_consumers        536830094                       # num instructions consuming a value
system.switch_cpus0.iew.wb_count            561333031                       # cumulative count of insts written-back
system.switch_cpus0.iew.wb_fanout            0.619054                       # average fanout of values written-back
system.switch_cpus0.iew.wb_producers        332326599                       # num instructions producing a value
system.switch_cpus0.iew.wb_rate              0.272177                       # insts written-back per cycle
system.switch_cpus0.iew.wb_sent             574305131                       # cumulative count of insts sent to commit
system.switch_cpus0.int_regfile_reads       575618022                       # number of integer regfile reads
system.switch_cpus0.int_regfile_writes      185445915                       # number of integer regfile writes
system.switch_cpus0.ipc                      0.116720                       # IPC: Instructions Per Cycle
system.switch_cpus0.ipc_total                0.116720                       # IPC: Total IPC of All Threads
system.switch_cpus0.iq.FU_type_0::No_OpClass     12965360      2.22%      2.22% # Type of FU issued
system.switch_cpus0.iq.FU_type_0::IntAlu    242035822     41.39%     43.61% # Type of FU issued
system.switch_cpus0.iq.FU_type_0::IntMult            0      0.00%     43.61% # Type of FU issued
system.switch_cpus0.iq.FU_type_0::IntDiv            0      0.00%     43.61% # Type of FU issued
system.switch_cpus0.iq.FU_type_0::FloatAdd     71044244     12.15%     55.76% # Type of FU issued
system.switch_cpus0.iq.FU_type_0::FloatCmp            0      0.00%     55.76% # Type of FU issued
system.switch_cpus0.iq.FU_type_0::FloatCvt            0      0.00%     55.76% # Type of FU issued
system.switch_cpus0.iq.FU_type_0::FloatMult            0      0.00%     55.76% # Type of FU issued
system.switch_cpus0.iq.FU_type_0::FloatMultAcc            0      0.00%     55.76% # Type of FU issued
system.switch_cpus0.iq.FU_type_0::FloatDiv            0      0.00%     55.76% # Type of FU issued
system.switch_cpus0.iq.FU_type_0::FloatMisc            0      0.00%     55.76% # Type of FU issued
system.switch_cpus0.iq.FU_type_0::FloatSqrt            0      0.00%     55.76% # Type of FU issued
system.switch_cpus0.iq.FU_type_0::SimdAdd            0      0.00%     55.76% # Type of FU issued
system.switch_cpus0.iq.FU_type_0::SimdAddAcc            0      0.00%     55.76% # Type of FU issued
system.switch_cpus0.iq.FU_type_0::SimdAlu        43854      0.01%     55.77% # Type of FU issued
system.switch_cpus0.iq.FU_type_0::SimdCmp            0      0.00%     55.77% # Type of FU issued
system.switch_cpus0.iq.FU_type_0::SimdCvt            0      0.00%     55.77% # Type of FU issued
system.switch_cpus0.iq.FU_type_0::SimdMisc            0      0.00%     55.77% # Type of FU issued
system.switch_cpus0.iq.FU_type_0::SimdMult            0      0.00%     55.77% # Type of FU issued
system.switch_cpus0.iq.FU_type_0::SimdMultAcc            0      0.00%     55.77% # Type of FU issued
system.switch_cpus0.iq.FU_type_0::SimdShift            0      0.00%     55.77% # Type of FU issued
system.switch_cpus0.iq.FU_type_0::SimdShiftAcc            0      0.00%     55.77% # Type of FU issued
system.switch_cpus0.iq.FU_type_0::SimdDiv            0      0.00%     55.77% # Type of FU issued
system.switch_cpus0.iq.FU_type_0::SimdSqrt            0      0.00%     55.77% # Type of FU issued
system.switch_cpus0.iq.FU_type_0::SimdFloatAdd     27867694      4.77%     60.53% # Type of FU issued
system.switch_cpus0.iq.FU_type_0::SimdFloatAlu            0      0.00%     60.53% # Type of FU issued
system.switch_cpus0.iq.FU_type_0::SimdFloatCmp     28747978      4.92%     65.45% # Type of FU issued
system.switch_cpus0.iq.FU_type_0::SimdFloatCvt      5482588      0.94%     66.38% # Type of FU issued
system.switch_cpus0.iq.FU_type_0::SimdFloatDiv            0      0.00%     66.38% # Type of FU issued
system.switch_cpus0.iq.FU_type_0::SimdFloatMisc            0      0.00%     66.38% # Type of FU issued
system.switch_cpus0.iq.FU_type_0::SimdFloatMult     14565494      2.49%     68.88% # Type of FU issued
system.switch_cpus0.iq.FU_type_0::SimdFloatMultAcc            0      0.00%     68.88% # Type of FU issued
system.switch_cpus0.iq.FU_type_0::SimdFloatSqrt            0      0.00%     68.88% # Type of FU issued
system.switch_cpus0.iq.FU_type_0::SimdReduceAdd            0      0.00%     68.88% # Type of FU issued
system.switch_cpus0.iq.FU_type_0::SimdReduceAlu            0      0.00%     68.88% # Type of FU issued
system.switch_cpus0.iq.FU_type_0::SimdReduceCmp            0      0.00%     68.88% # Type of FU issued
system.switch_cpus0.iq.FU_type_0::SimdFloatReduceAdd            0      0.00%     68.88% # Type of FU issued
system.switch_cpus0.iq.FU_type_0::SimdFloatReduceCmp            0      0.00%     68.88% # Type of FU issued
system.switch_cpus0.iq.FU_type_0::SimdAes            0      0.00%     68.88% # Type of FU issued
system.switch_cpus0.iq.FU_type_0::SimdAesMix            0      0.00%     68.88% # Type of FU issued
system.switch_cpus0.iq.FU_type_0::SimdSha1Hash            0      0.00%     68.88% # Type of FU issued
system.switch_cpus0.iq.FU_type_0::SimdSha1Hash2            0      0.00%     68.88% # Type of FU issued
system.switch_cpus0.iq.FU_type_0::SimdSha256Hash            0      0.00%     68.88% # Type of FU issued
system.switch_cpus0.iq.FU_type_0::SimdSha256Hash2            0      0.00%     68.88% # Type of FU issued
system.switch_cpus0.iq.FU_type_0::SimdShaSigma2            0      0.00%     68.88% # Type of FU issued
system.switch_cpus0.iq.FU_type_0::SimdShaSigma3            0      0.00%     68.88% # Type of FU issued
system.switch_cpus0.iq.FU_type_0::SimdPredAlu            0      0.00%     68.88% # Type of FU issued
system.switch_cpus0.iq.FU_type_0::MemRead     26284592      4.49%     73.37% # Type of FU issued
system.switch_cpus0.iq.FU_type_0::MemWrite     21056398      3.60%     76.97% # Type of FU issued
system.switch_cpus0.iq.FU_type_0::FloatMemRead     92162460     15.76%     92.73% # Type of FU issued
system.switch_cpus0.iq.FU_type_0::FloatMemWrite     42495711      7.27%    100.00% # Type of FU issued
system.switch_cpus0.iq.FU_type_0::IprAccess            0      0.00%    100.00% # Type of FU issued
system.switch_cpus0.iq.FU_type_0::InstPrefetch            0      0.00%    100.00% # Type of FU issued
system.switch_cpus0.iq.FU_type_0::total     584752195                       # Type of FU issued
system.switch_cpus0.iq.fp_alu_accesses      348738570                       # Number of floating point alu accesses
system.switch_cpus0.iq.fp_inst_queue_reads    682948324                       # Number of floating instruction queue reads
system.switch_cpus0.iq.fp_inst_queue_wakeup_accesses    326689192                       # Number of floating instruction queue wakeup accesses
system.switch_cpus0.iq.fp_inst_queue_writes    378019001                       # Number of floating instruction queue writes
system.switch_cpus0.iq.fu_busy_cnt           24201526                       # FU busy when requested
system.switch_cpus0.iq.fu_busy_rate          0.041388                       # FU busy rate (busy events/executed inst)
system.switch_cpus0.iq.fu_full::No_OpClass            0      0.00%      0.00% # attempts to use FU when none available
system.switch_cpus0.iq.fu_full::IntAlu        1084578      4.48%      4.48% # attempts to use FU when none available
system.switch_cpus0.iq.fu_full::IntMult             0      0.00%      4.48% # attempts to use FU when none available
system.switch_cpus0.iq.fu_full::IntDiv              0      0.00%      4.48% # attempts to use FU when none available
system.switch_cpus0.iq.fu_full::FloatAdd        17486      0.07%      4.55% # attempts to use FU when none available
system.switch_cpus0.iq.fu_full::FloatCmp            0      0.00%      4.55% # attempts to use FU when none available
system.switch_cpus0.iq.fu_full::FloatCvt            0      0.00%      4.55% # attempts to use FU when none available
system.switch_cpus0.iq.fu_full::FloatMult            0      0.00%      4.55% # attempts to use FU when none available
system.switch_cpus0.iq.fu_full::FloatMultAcc            0      0.00%      4.55% # attempts to use FU when none available
system.switch_cpus0.iq.fu_full::FloatDiv            0      0.00%      4.55% # attempts to use FU when none available
system.switch_cpus0.iq.fu_full::FloatMisc            0      0.00%      4.55% # attempts to use FU when none available
system.switch_cpus0.iq.fu_full::FloatSqrt            0      0.00%      4.55% # attempts to use FU when none available
system.switch_cpus0.iq.fu_full::SimdAdd             0      0.00%      4.55% # attempts to use FU when none available
system.switch_cpus0.iq.fu_full::SimdAddAcc            0      0.00%      4.55% # attempts to use FU when none available
system.switch_cpus0.iq.fu_full::SimdAlu             0      0.00%      4.55% # attempts to use FU when none available
system.switch_cpus0.iq.fu_full::SimdCmp             0      0.00%      4.55% # attempts to use FU when none available
system.switch_cpus0.iq.fu_full::SimdCvt             0      0.00%      4.55% # attempts to use FU when none available
system.switch_cpus0.iq.fu_full::SimdMisc            0      0.00%      4.55% # attempts to use FU when none available
system.switch_cpus0.iq.fu_full::SimdMult            0      0.00%      4.55% # attempts to use FU when none available
system.switch_cpus0.iq.fu_full::SimdMultAcc            0      0.00%      4.55% # attempts to use FU when none available
system.switch_cpus0.iq.fu_full::SimdShift            0      0.00%      4.55% # attempts to use FU when none available
system.switch_cpus0.iq.fu_full::SimdShiftAcc            0      0.00%      4.55% # attempts to use FU when none available
system.switch_cpus0.iq.fu_full::SimdDiv             0      0.00%      4.55% # attempts to use FU when none available
system.switch_cpus0.iq.fu_full::SimdSqrt            0      0.00%      4.55% # attempts to use FU when none available
system.switch_cpus0.iq.fu_full::SimdFloatAdd       207295      0.86%      5.41% # attempts to use FU when none available
system.switch_cpus0.iq.fu_full::SimdFloatAlu            0      0.00%      5.41% # attempts to use FU when none available
system.switch_cpus0.iq.fu_full::SimdFloatCmp       885293      3.66%      9.07% # attempts to use FU when none available
system.switch_cpus0.iq.fu_full::SimdFloatCvt            0      0.00%      9.07% # attempts to use FU when none available
system.switch_cpus0.iq.fu_full::SimdFloatDiv            0      0.00%      9.07% # attempts to use FU when none available
system.switch_cpus0.iq.fu_full::SimdFloatMisc            0      0.00%      9.07% # attempts to use FU when none available
system.switch_cpus0.iq.fu_full::SimdFloatMult        22858      0.09%      9.16% # attempts to use FU when none available
system.switch_cpus0.iq.fu_full::SimdFloatMultAcc            0      0.00%      9.16% # attempts to use FU when none available
system.switch_cpus0.iq.fu_full::SimdFloatSqrt            0      0.00%      9.16% # attempts to use FU when none available
system.switch_cpus0.iq.fu_full::SimdReduceAdd            0      0.00%      9.16% # attempts to use FU when none available
system.switch_cpus0.iq.fu_full::SimdReduceAlu            0      0.00%      9.16% # attempts to use FU when none available
system.switch_cpus0.iq.fu_full::SimdReduceCmp            0      0.00%      9.16% # attempts to use FU when none available
system.switch_cpus0.iq.fu_full::SimdFloatReduceAdd            0      0.00%      9.16% # attempts to use FU when none available
system.switch_cpus0.iq.fu_full::SimdFloatReduceCmp            0      0.00%      9.16% # attempts to use FU when none available
system.switch_cpus0.iq.fu_full::SimdAes             0      0.00%      9.16% # attempts to use FU when none available
system.switch_cpus0.iq.fu_full::SimdAesMix            0      0.00%      9.16% # attempts to use FU when none available
system.switch_cpus0.iq.fu_full::SimdSha1Hash            0      0.00%      9.16% # attempts to use FU when none available
system.switch_cpus0.iq.fu_full::SimdSha1Hash2            0      0.00%      9.16% # attempts to use FU when none available
system.switch_cpus0.iq.fu_full::SimdSha256Hash            0      0.00%      9.16% # attempts to use FU when none available
system.switch_cpus0.iq.fu_full::SimdSha256Hash2            0      0.00%      9.16% # attempts to use FU when none available
system.switch_cpus0.iq.fu_full::SimdShaSigma2            0      0.00%      9.16% # attempts to use FU when none available
system.switch_cpus0.iq.fu_full::SimdShaSigma3            0      0.00%      9.16% # attempts to use FU when none available
system.switch_cpus0.iq.fu_full::SimdPredAlu            0      0.00%      9.16% # attempts to use FU when none available
system.switch_cpus0.iq.fu_full::MemRead       1756150      7.26%     16.42% # attempts to use FU when none available
system.switch_cpus0.iq.fu_full::MemWrite      6837281     28.25%     44.67% # attempts to use FU when none available
system.switch_cpus0.iq.fu_full::FloatMemRead      9696088     40.06%     84.73% # attempts to use FU when none available
system.switch_cpus0.iq.fu_full::FloatMemWrite      3694497     15.27%    100.00% # attempts to use FU when none available
system.switch_cpus0.iq.fu_full::IprAccess            0      0.00%    100.00% # attempts to use FU when none available
system.switch_cpus0.iq.fu_full::InstPrefetch            0      0.00%    100.00% # attempts to use FU when none available
system.switch_cpus0.iq.int_alu_accesses     247249791                       # Number of integer alu accesses
system.switch_cpus0.iq.int_inst_queue_reads   2573227248                       # Number of integer instruction queue reads
system.switch_cpus0.iq.int_inst_queue_wakeup_accesses    234643839                       # Number of integer instruction queue wakeup accesses
system.switch_cpus0.iq.int_inst_queue_writes    366797433                       # Number of integer instruction queue writes
system.switch_cpus0.iq.iqInstsAdded         587279149                       # Number of instructions added to the IQ (excludes non-spec)
system.switch_cpus0.iq.iqInstsIssued        584752195                       # Number of instructions issued
system.switch_cpus0.iq.iqNonSpecInstsAdded         8061                       # Number of non-speculative instructions added to the IQ
system.switch_cpus0.iq.iqSquashedInstsExamined    157523041                       # Number of squashed instructions iterated over during squash; mainly for profiling
system.switch_cpus0.iq.iqSquashedInstsIssued       169025                       # Number of squashed instructions issued
system.switch_cpus0.iq.iqSquashedNonSpecRemoved         7266                       # Number of squashed non-spec instructions that were removed
system.switch_cpus0.iq.iqSquashedOperandsExamined     50855034                       # Number of squashed operands that are examined and possibly removed from graph
system.switch_cpus0.iq.issued_per_cycle::samples   2062300631                       # Number of insts issued each cycle
system.switch_cpus0.iq.issued_per_cycle::mean     0.283544                       # Number of insts issued each cycle
system.switch_cpus0.iq.issued_per_cycle::stdev     1.158972                       # Number of insts issued each cycle
system.switch_cpus0.iq.issued_per_cycle::underflows            0      0.00%      0.00% # Number of insts issued each cycle
system.switch_cpus0.iq.issued_per_cycle::0   1897536966     92.01%     92.01% # Number of insts issued each cycle
system.switch_cpus0.iq.issued_per_cycle::1     41987952      2.04%     94.05% # Number of insts issued each cycle
system.switch_cpus0.iq.issued_per_cycle::2     28456080      1.38%     95.43% # Number of insts issued each cycle
system.switch_cpus0.iq.issued_per_cycle::3     20748745      1.01%     96.43% # Number of insts issued each cycle
system.switch_cpus0.iq.issued_per_cycle::4     19706424      0.96%     97.39% # Number of insts issued each cycle
system.switch_cpus0.iq.issued_per_cycle::5     15400371      0.75%     98.13% # Number of insts issued each cycle
system.switch_cpus0.iq.issued_per_cycle::6     15185631      0.74%     98.87% # Number of insts issued each cycle
system.switch_cpus0.iq.issued_per_cycle::7      9563185      0.46%     99.33% # Number of insts issued each cycle
system.switch_cpus0.iq.issued_per_cycle::8     13715277      0.67%    100.00% # Number of insts issued each cycle
system.switch_cpus0.iq.issued_per_cycle::overflows            0      0.00%    100.00% # Number of insts issued each cycle
system.switch_cpus0.iq.issued_per_cycle::min_value            0                       # Number of insts issued each cycle
system.switch_cpus0.iq.issued_per_cycle::max_value            8                       # Number of insts issued each cycle
system.switch_cpus0.iq.issued_per_cycle::total   2062300631                       # Number of insts issued each cycle
system.switch_cpus0.iq.rate                  0.283532                       # Inst issue rate
system.switch_cpus0.iq.vec_alu_accesses             0                       # Number of vector alu accesses
system.switch_cpus0.iq.vec_inst_queue_reads            0                       # Number of vector instruction queue reads
system.switch_cpus0.iq.vec_inst_queue_wakeup_accesses            0                       # Number of vector instruction queue wakeup accesses
system.switch_cpus0.iq.vec_inst_queue_writes            0                       # Number of vector instruction queue writes
system.switch_cpus0.memDep0.conflictingLoads     16832755                       # Number of conflicting loads.
system.switch_cpus0.memDep0.conflictingStores     16233018                       # Number of conflicting stores.
system.switch_cpus0.memDep0.insertedLoads    112757057                       # Number of loads inserted to the mem dependence unit.
system.switch_cpus0.memDep0.insertedStores     64928275                       # Number of stores inserted to the mem dependence unit.
system.switch_cpus0.misc_regfile_reads      240239736                       # number of misc regfile reads
system.switch_cpus0.misc_regfile_writes             1                       # number of misc regfile writes
system.switch_cpus0.numCycles              2062382029                       # number of cpu cycles simulated
system.switch_cpus0.numWorkItemsCompleted            0                       # number of work items this cpu completed
system.switch_cpus0.numWorkItemsStarted             0                       # number of work items this cpu started
system.switch_cpus0.timesIdled                    152                       # Number of times that the entire CPU went into an idle state and unscheduled itself
system.switch_cpus1.cc_regfile_reads        200332971                       # number of cc regfile reads
system.switch_cpus1.cc_regfile_writes       123961403                       # number of cc regfile writes
system.switch_cpus1.committedInsts          250000000                       # Number of Instructions Simulated
system.switch_cpus1.committedOps            446992460                       # Number of Ops (including micro ops) Simulated
system.switch_cpus1.cpi                      8.249528                       # CPI: Cycles Per Instruction
system.switch_cpus1.cpi_total                8.249528                       # CPI: Total CPI of All Threads
system.switch_cpus1.fp_regfile_reads        381804101                       # number of floating regfile reads
system.switch_cpus1.fp_regfile_writes       287518852                       # number of floating regfile writes
system.switch_cpus1.idleCycles                  56027                       # Total number of cycles that the CPU has spent unscheduled due to idling
system.switch_cpus1.iew.branchMispredicts       649289                       # Number of branch mispredicts detected at execute
system.switch_cpus1.iew.exec_branches        29597896                       # Number of branches executed
system.switch_cpus1.iew.exec_nop                    0                       # number of nop insts executed
system.switch_cpus1.iew.exec_rate            0.292421                       # Inst execution rate
system.switch_cpus1.iew.exec_refs           187438289                       # number of memory reference insts executed
system.switch_cpus1.iew.exec_stores          65100401                       # Number of stores executed
system.switch_cpus1.iew.exec_swp                    0                       # number of swp insts executed
system.switch_cpus1.iew.iewBlockCycles      369935656                       # Number of cycles IEW is blocking
system.switch_cpus1.iew.iewDispLoadInsts    116214667                       # Number of dispatched load instructions
system.switch_cpus1.iew.iewDispNonSpecInsts          117                       # Number of dispatched non-speculative instructions
system.switch_cpus1.iew.iewDispSquashedInsts        10926                       # Number of squashed instructions skipped by dispatch
system.switch_cpus1.iew.iewDispStoreInsts     66679848                       # Number of dispatched store instructions
system.switch_cpus1.iew.iewDispatchedInsts    606788931                       # Number of instructions dispatched to IQ
system.switch_cpus1.iew.iewExecLoadInsts    122337888                       # Number of load instructions executed
system.switch_cpus1.iew.iewExecSquashedInsts      1384520                       # Number of squashed instructions skipped in execute
system.switch_cpus1.iew.iewExecutedInsts    603082997                       # Number of executed instructions
system.switch_cpus1.iew.iewIQFullEvents       1642964                       # Number of times the IQ has become full, causing a stall
system.switch_cpus1.iew.iewIdleCycles               0                       # Number of cycles IEW is idle
system.switch_cpus1.iew.iewLSQFullEvents    406756774                       # Number of times the LSQ has become full, causing a stall
system.switch_cpus1.iew.iewSquashCycles       1690659                       # Number of cycles IEW is squashing
system.switch_cpus1.iew.iewUnblockCycles    409316575                       # Number of cycles IEW is unblocking
system.switch_cpus1.iew.memOrderViolationEvents         7854                       # Number of memory order violations
system.switch_cpus1.iew.predictedNotTakenIncorrect       322486                       # Number of branches that were predicted not taken incorrectly
system.switch_cpus1.iew.predictedTakenIncorrect       326803                       # Number of branches that were predicted taken incorrectly
system.switch_cpus1.iew.wb_consumers        557267969                       # num instructions consuming a value
system.switch_cpus1.iew.wb_count            580004229                       # cumulative count of insts written-back
system.switch_cpus1.iew.wb_fanout            0.618677                       # average fanout of values written-back
system.switch_cpus1.iew.wb_producers        344769057                       # num instructions producing a value
system.switch_cpus1.iew.wb_rate              0.281230                       # insts written-back per cycle
system.switch_cpus1.iew.wb_sent             593161050                       # cumulative count of insts sent to commit
system.switch_cpus1.int_regfile_reads       595905411                       # number of integer regfile reads
system.switch_cpus1.int_regfile_writes      192303566                       # number of integer regfile writes
system.switch_cpus1.ipc                      0.121219                       # IPC: Instructions Per Cycle
system.switch_cpus1.ipc_total                0.121219                       # IPC: Total IPC of All Threads
system.switch_cpus1.iq.FU_type_0::No_OpClass     13184358      2.18%      2.18% # Type of FU issued
system.switch_cpus1.iq.FU_type_0::IntAlu    250709093     41.48%     43.66% # Type of FU issued
system.switch_cpus1.iq.FU_type_0::IntMult            0      0.00%     43.66% # Type of FU issued
system.switch_cpus1.iq.FU_type_0::IntDiv            0      0.00%     43.66% # Type of FU issued
system.switch_cpus1.iq.FU_type_0::FloatAdd     73635113     12.18%     55.84% # Type of FU issued
system.switch_cpus1.iq.FU_type_0::FloatCmp            0      0.00%     55.84% # Type of FU issued
system.switch_cpus1.iq.FU_type_0::FloatCvt            0      0.00%     55.84% # Type of FU issued
system.switch_cpus1.iq.FU_type_0::FloatMult            0      0.00%     55.84% # Type of FU issued
system.switch_cpus1.iq.FU_type_0::FloatMultAcc            0      0.00%     55.84% # Type of FU issued
system.switch_cpus1.iq.FU_type_0::FloatDiv            0      0.00%     55.84% # Type of FU issued
system.switch_cpus1.iq.FU_type_0::FloatMisc            0      0.00%     55.84% # Type of FU issued
system.switch_cpus1.iq.FU_type_0::FloatSqrt            0      0.00%     55.84% # Type of FU issued
system.switch_cpus1.iq.FU_type_0::SimdAdd            0      0.00%     55.84% # Type of FU issued
system.switch_cpus1.iq.FU_type_0::SimdAddAcc            0      0.00%     55.84% # Type of FU issued
system.switch_cpus1.iq.FU_type_0::SimdAlu        58088      0.01%     55.85% # Type of FU issued
system.switch_cpus1.iq.FU_type_0::SimdCmp            0      0.00%     55.85% # Type of FU issued
system.switch_cpus1.iq.FU_type_0::SimdCvt            0      0.00%     55.85% # Type of FU issued
system.switch_cpus1.iq.FU_type_0::SimdMisc            0      0.00%     55.85% # Type of FU issued
system.switch_cpus1.iq.FU_type_0::SimdMult            0      0.00%     55.85% # Type of FU issued
system.switch_cpus1.iq.FU_type_0::SimdMultAcc            0      0.00%     55.85% # Type of FU issued
system.switch_cpus1.iq.FU_type_0::SimdShift            0      0.00%     55.85% # Type of FU issued
system.switch_cpus1.iq.FU_type_0::SimdShiftAcc            0      0.00%     55.85% # Type of FU issued
system.switch_cpus1.iq.FU_type_0::SimdDiv            0      0.00%     55.85% # Type of FU issued
system.switch_cpus1.iq.FU_type_0::SimdSqrt            0      0.00%     55.85% # Type of FU issued
system.switch_cpus1.iq.FU_type_0::SimdFloatAdd     28715517      4.75%     60.60% # Type of FU issued
system.switch_cpus1.iq.FU_type_0::SimdFloatAlu            0      0.00%     60.60% # Type of FU issued
system.switch_cpus1.iq.FU_type_0::SimdFloatCmp     29653020      4.91%     65.50% # Type of FU issued
system.switch_cpus1.iq.FU_type_0::SimdFloatCvt      5714381      0.95%     66.45% # Type of FU issued
system.switch_cpus1.iq.FU_type_0::SimdFloatDiv            0      0.00%     66.45% # Type of FU issued
system.switch_cpus1.iq.FU_type_0::SimdFloatMisc            0      0.00%     66.45% # Type of FU issued
system.switch_cpus1.iq.FU_type_0::SimdFloatMult     15003812      2.48%     68.93% # Type of FU issued
system.switch_cpus1.iq.FU_type_0::SimdFloatMultAcc            0      0.00%     68.93% # Type of FU issued
system.switch_cpus1.iq.FU_type_0::SimdFloatSqrt            0      0.00%     68.93% # Type of FU issued
system.switch_cpus1.iq.FU_type_0::SimdReduceAdd            0      0.00%     68.93% # Type of FU issued
system.switch_cpus1.iq.FU_type_0::SimdReduceAlu            0      0.00%     68.93% # Type of FU issued
system.switch_cpus1.iq.FU_type_0::SimdReduceCmp            0      0.00%     68.93% # Type of FU issued
system.switch_cpus1.iq.FU_type_0::SimdFloatReduceAdd            0      0.00%     68.93% # Type of FU issued
system.switch_cpus1.iq.FU_type_0::SimdFloatReduceCmp            0      0.00%     68.93% # Type of FU issued
[...]
system.switch_cpus3.commit.numCommittedDist::0   1937512624     94.80%     94.80% # Number of insts commited each cycle
system.switch_cpus3.commit.numCommittedDist::1     37511087      1.84%     96.64% # Number of insts commited each cycle
system.switch_cpus3.commit.numCommittedDist::2      5115688      0.25%     96.89% # Number of insts commited each cycle
system.switch_cpus3.commit.numCommittedDist::3      9234094      0.45%     97.34% # Number of insts commited each cycle
system.switch_cpus3.commit.numCommittedDist::4     10390919      0.51%     97.85% # Number of insts commited each cycle
system.switch_cpus3.commit.numCommittedDist::5      3422318      0.17%     98.01% # Number of insts commited each cycle
system.switch_cpus3.commit.numCommittedDist::6      4093260      0.20%     98.21% # Number of insts commited each cycle
system.switch_cpus3.commit.numCommittedDist::7      3921459      0.19%     98.41% # Number of insts commited each cycle
system.switch_cpus3.commit.numCommittedDist::8     32574436      1.59%    100.00% # Number of insts commited each cycle
system.switch_cpus3.commit.numCommittedDist::overflows            0      0.00%    100.00% # Number of insts commited each cycle
system.switch_cpus3.commit.numCommittedDist::min_value            0                       # Number of insts commited each cycle
system.switch_cpus3.commit.numCommittedDist::max_value            8                       # Number of insts commited each cycle
system.switch_cpus3.commit.numCommittedDist::total   2043775885                       # Number of insts commited each cycle
system.switch_cpus3.commit.instsCommitted    249848558                       # Number of instructions committed
system.switch_cpus3.commit.opsCommitted     446725272                       # Number of ops (including micro ops) committed
system.switch_cpus3.commit.memRefs          107897569                       # Number of memory references committed
system.switch_cpus3.commit.loads             80196880                       # Number of loads committed
system.switch_cpus3.commit.amos                     0                       # Number of atomic instructions committed
system.switch_cpus3.commit.membars                100                       # Number of memory barriers committed
system.switch_cpus3.commit.branches          23603196                       # Number of branches committed
system.switch_cpus3.commit.vector                   0                       # Number of committed Vector instructions.
system.switch_cpus3.commit.floating         286973480                       # Number of committed floating point instructions.
system.switch_cpus3.commit.integer          242526359                       # Number of committed integer instructions.
system.switch_cpus3.commit.functionCalls       832945                       # Number of function calls committed.
system.switch_cpus3.commit.committedInstType_0::No_OpClass       267803      0.06%      0.06% # Class of committed instruction
system.switch_cpus3.commit.committedInstType_0::IntAlu    187221745     41.91%     41.97% # Class of committed instruction
system.switch_cpus3.commit.committedInstType_0::IntMult            0      0.00%     41.97% # Class of committed instruction
system.switch_cpus3.commit.committedInstType_0::IntDiv            0      0.00%     41.97% # Class of committed instruction
system.switch_cpus3.commit.committedInstType_0::FloatAdd     72661892     16.27%     58.24% # Class of committed instruction
system.switch_cpus3.commit.committedInstType_0::FloatCmp            0      0.00%     58.24% # Class of committed instruction
system.switch_cpus3.commit.committedInstType_0::FloatCvt            0      0.00%     58.24% # Class of committed instruction
system.switch_cpus3.commit.committedInstType_0::FloatMult            0      0.00%     58.24% # Class of committed instruction
system.switch_cpus3.commit.committedInstType_0::FloatMultAcc            0      0.00%     58.24% # Class of committed instruction
system.switch_cpus3.commit.committedInstType_0::FloatDiv            0      0.00%     58.24% # Class of committed instruction
system.switch_cpus3.commit.committedInstType_0::FloatMisc            0      0.00%     58.24% # Class of committed instruction
system.switch_cpus3.commit.committedInstType_0::FloatSqrt            0      0.00%     58.24% # Class of committed instruction
system.switch_cpus3.commit.committedInstType_0::SimdAdd            0      0.00%     58.24% # Class of committed instruction
system.switch_cpus3.commit.committedInstType_0::SimdAddAcc            0      0.00%     58.24% # Class of committed instruction
system.switch_cpus3.commit.committedInstType_0::SimdAlu        53360      0.01%     58.25% # Class of committed instruction
system.switch_cpus3.commit.committedInstType_0::SimdCmp            0      0.00%     58.25% # Class of committed instruction
system.switch_cpus3.commit.committedInstType_0::SimdCvt            0      0.00%     58.25% # Class of committed instruction
system.switch_cpus3.commit.committedInstType_0::SimdMisc            0      0.00%     58.25% # Class of committed instruction
system.switch_cpus3.commit.committedInstType_0::SimdMult            0      0.00%     58.25% # Class of committed instruction
system.switch_cpus3.commit.committedInstType_0::SimdMultAcc            0      0.00%     58.25% # Class of committed instruction
system.switch_cpus3.commit.committedInstType_0::SimdShift            0      0.00%     58.25% # Class of committed instruction
system.switch_cpus3.commit.committedInstType_0::SimdShiftAcc            0      0.00%     58.25% # Class of committed instruction
system.switch_cpus3.commit.committedInstType_0::SimdDiv            0      0.00%     58.25% # Class of committed instruction
system.switch_cpus3.commit.committedInstType_0::SimdSqrt            0      0.00%     58.25% # Class of committed instruction
system.switch_cpus3.commit.committedInstType_0::SimdFloatAdd     28546195      6.39%     64.64% # Class of committed instruction
system.switch_cpus3.commit.committedInstType_0::SimdFloatAlu            0      0.00%     64.64% # Class of committed instruction
system.switch_cpus3.commit.committedInstType_0::SimdFloatCmp     29478650      6.60%     71.24% # Class of committed instruction
system.switch_cpus3.commit.committedInstType_0::SimdFloatCvt      5671898      1.27%     72.51% # Class of committed instruction
system.switch_cpus3.commit.committedInstType_0::SimdFloatDiv            0      0.00%     72.51% # Class of committed instruction
system.switch_cpus3.commit.committedInstType_0::SimdFloatMisc            0      0.00%     72.51% # Class of committed instruction
system.switch_cpus3.commit.committedInstType_0::SimdFloatMult     14926160      3.34%     75.85% # Class of committed instruction
system.switch_cpus3.commit.committedInstType_0::SimdFloatMultAcc            0      0.00%     75.85% # Class of committed instruction
system.switch_cpus3.commit.committedInstType_0::SimdFloatSqrt            0      0.00%     75.85% # Class of committed instruction
system.switch_cpus3.commit.committedInstType_0::SimdReduceAdd            0      0.00%     75.85% # Class of committed instruction
system.switch_cpus3.commit.committedInstType_0::SimdReduceAlu            0      0.00%     75.85% # Class of committed instruction
system.switch_cpus3.commit.committedInstType_0::SimdReduceCmp            0      0.00%     75.85% # Class of committed instruction
system.switch_cpus3.commit.committedInstType_0::SimdFloatReduceAdd            0      0.00%     75.85% # Class of committed instruction
system.switch_cpus3.commit.committedInstType_0::SimdFloatReduceCmp            0      0.00%     75.85% # Class of committed instruction
system.switch_cpus3.commit.committedInstType_0::SimdAes            0      0.00%     75.85% # Class of committed instruction
system.switch_cpus3.commit.committedInstType_0::SimdAesMix            0      0.00%     75.85% # Class of committed instruction
system.switch_cpus3.commit.committedInstType_0::SimdSha1Hash            0      0.00%     75.85% # Class of committed instruction
system.switch_cpus3.commit.committedInstType_0::SimdSha1Hash2            0      0.00%     75.85% # Class of committed instruction
system.switch_cpus3.commit.committedInstType_0::SimdSha256Hash            0      0.00%     75.85% # Class of committed instruction
system.switch_cpus3.commit.committedInstType_0::SimdSha256Hash2            0      0.00%     75.85% # Class of committed instruction
system.switch_cpus3.commit.committedInstType_0::SimdShaSigma2            0      0.00%     75.85% # Class of committed instruction
system.switch_cpus3.commit.committedInstType_0::SimdShaSigma3            0      0.00%     75.85% # Class of committed instruction
system.switch_cpus3.commit.committedInstType_0::SimdPredAlu            0      0.00%     75.85% # Class of committed instruction
system.switch_cpus3.commit.committedInstType_0::MemRead     16926844      3.79%     79.64% # Class of committed instruction
system.switch_cpus3.commit.committedInstType_0::MemWrite      7919876      1.77%     81.41% # Class of committed instruction
system.switch_cpus3.commit.committedInstType_0::FloatMemRead     63270036     14.16%     95.57% # Class of committed instruction
system.switch_cpus3.commit.committedInstType_0::FloatMemWrite     19780813      4.43%    100.00% # Class of committed instruction
system.switch_cpus3.commit.committedInstType_0::IprAccess            0      0.00%    100.00% # Class of committed instruction
system.switch_cpus3.commit.committedInstType_0::InstPrefetch            0      0.00%    100.00% # Class of committed instruction
system.switch_cpus3.commit.committedInstType_0::total    446725272                       # Class of committed instruction
system.switch_cpus3.commit.commitEligibleSamples     32574436                       # number cycles where commit BW limit reached
system.switch_cpus3.decode.idleCycles        15396141                       # Number of cycles decode is idle
system.switch_cpus3.decode.blockedCycles   1962940140                       # Number of cycles decode is blocked
system.switch_cpus3.decode.runCycles         52553084                       # Number of cycles decode is running
system.switch_cpus3.decode.unblockCycles     29753045                       # Number of cycles decode is unblocking
system.switch_cpus3.decode.squashCycles       1689650                       # Number of cycles decode is squashing
system.switch_cpus3.decode.branchResolved     17713583                       # Number of times decode resolved a  branch
system.switch_cpus3.decode.branchMispred          398                       # Number of times decode detected a branch misprediction
system.switch_cpus3.decode.decodedInsts     625375239                       # Number of instructions handled by decode
system.switch_cpus3.decode.squashedInsts         2453                       # Number of squashed instructions handled by decode
system.switch_cpus3.dtb.rdAccesses          125009215                       # TLB accesses on read requests
system.switch_cpus3.dtb.wrAccesses           65065878                       # TLB accesses on write requests
system.switch_cpus3.dtb.rdMisses              2727878                       # TLB misses on read requests
system.switch_cpus3.dtb.wrMisses               329536                       # TLB misses on write requests
system.switch_cpus3.dtb.walker.power_state.pwrStateResidencyTicks::UNDEFINED 18905935467339                       # Cumulative time (in ticks) in various power states
system.switch_cpus3.fetch.icacheStallCycles       848208                       # Number of cycles fetch is stalled on an Icache miss
system.switch_cpus3.fetch.insts             359553791                       # Number of instructions fetch has processed
system.switch_cpus3.fetch.branches           36811689                       # Number of branches that fetch encountered
system.switch_cpus3.fetch.predictedBranches     21733966                       # Number of branches that fetch has predicted taken
system.switch_cpus3.fetch.cycles           2059790715                       # Number of cycles fetch has run and was not squashing or blocked
system.switch_cpus3.fetch.squashCycles        3380062                       # Number of cycles fetch has spent squashing
system.switch_cpus3.fetch.miscStallCycles          106                       # Number of cycles fetch has spent waiting on interrupts,or bad addresses, or out of MSHRs
system.switch_cpus3.fetch.pendingTrapStallCycles         3003                       # Number of stall cycles due to pending traps
system.switch_cpus3.fetch.cacheLines         46351231                       # Number of cache lines fetched
system.switch_cpus3.fetch.icacheSquashes          190                       # Number of outstanding Icache misses that were squashed
system.switch_cpus3.fetch.nisnDist::samples   2062332063                       # Number of instructions fetched each cycle (Total)
system.switch_cpus3.fetch.nisnDist::mean     0.333208                       # Number of instructions fetched each cycle (Total)
system.switch_cpus3.fetch.nisnDist::stdev     1.488683                       # Number of instructions fetched each cycle (Total)
system.switch_cpus3.fetch.nisnDist::underflows            0      0.00%      0.00% # Number of instructions fetched each cycle (Total)
system.switch_cpus3.fetch.nisnDist::0      1947867348     94.45%     94.45% # Number of instructions fetched each cycle (Total)
system.switch_cpus3.fetch.nisnDist::1         4930173      0.24%     94.69% # Number of instructions fetched each cycle (Total)
system.switch_cpus3.fetch.nisnDist::2        12894816      0.63%     95.31% # Number of instructions fetched each cycle (Total)
system.switch_cpus3.fetch.nisnDist::3         7632551      0.37%     95.68% # Number of instructions fetched each cycle (Total)
system.switch_cpus3.fetch.nisnDist::4         6733842      0.33%     96.01% # Number of instructions fetched each cycle (Total)
system.switch_cpus3.fetch.nisnDist::5        10254131      0.50%     96.51% # Number of instructions fetched each cycle (Total)
system.switch_cpus3.fetch.nisnDist::6         6403449      0.31%     96.82% # Number of instructions fetched each cycle (Total)
system.switch_cpus3.fetch.nisnDist::7         7984150      0.39%     97.21% # Number of instructions fetched each cycle (Total)
system.switch_cpus3.fetch.nisnDist::8        57631603      2.79%    100.00% # Number of instructions fetched each cycle (Total)
system.switch_cpus3.fetch.nisnDist::overflows            0      0.00%    100.00% # Number of instructions fetched each cycle (Total)
system.switch_cpus3.fetch.nisnDist::min_value            0                       # Number of instructions fetched each cycle (Total)
system.switch_cpus3.fetch.nisnDist::max_value            8                       # Number of instructions fetched each cycle (Total)
system.switch_cpus3.fetch.nisnDist::total   2062332063                       # Number of instructions fetched each cycle (Total)
system.switch_cpus3.fetch.branchRate         0.017849                       # Number of branch fetches per cycle
system.switch_cpus3.fetch.rate               0.174339                       # Number of inst fetches per cycle
system.switch_cpus3.itb.rdAccesses                  0                       # TLB accesses on read requests
system.switch_cpus3.itb.wrAccesses           46351415                       # TLB accesses on write requests
system.switch_cpus3.itb.rdMisses                    0                       # TLB misses on read requests
system.switch_cpus3.itb.wrMisses                  213                       # TLB misses on write requests
system.switch_cpus3.itb.walker.power_state.pwrStateResidencyTicks::UNDEFINED 18905935467339                       # Cumulative time (in ticks) in various power states
system.switch_cpus3.lsq0.forwLoads            1085587                       # Number of loads that had data forwarded from stores
system.switch_cpus3.lsq0.squashedLoads       35947753                       # Number of loads squashed
system.switch_cpus3.lsq0.ignoredResponses         1366                       # Number of memory responses ignored because the instruction is squashed
system.switch_cpus3.lsq0.memOrderViolation         8186                       # Number of memory ordering violations
system.switch_cpus3.lsq0.squashedStores      38934428                       # Number of stores squashed
system.switch_cpus3.lsq0.rescheduledLoads      8342973                       # Number of loads that were rescheduled
system.switch_cpus3.lsq0.blockedByCache          9024                       # Number of times an access to memory failed due to the cache being blocked
system.switch_cpus3.power_state.pwrStateResidencyTicks::OFF 686773226313                       # Cumulative time (in ticks) in various power states
system.switch_cpus3.rename.squashCycles       1689650                       # Number of cycles rename is squashing
system.switch_cpus3.rename.idleCycles        26897310                       # Number of cycles rename is idle
system.switch_cpus3.rename.blockCycles     1184010136                       # Number of cycles rename is blocking
system.switch_cpus3.rename.serializeStallCycles            0                       # count of cycles rename stalledfor serializing inst
system.switch_cpus3.rename.runCycles         68936231                       # Number of cycles rename is running
system.switch_cpus3.rename.unblockCycles    780798733                       # Number of cycles rename is unblocking
system.switch_cpus3.rename.renamedInsts     611389248                       # Number of instructions processed by rename
system.switch_cpus3.rename.ROBFullEvents     10213589                       # Number of times rename has blocked due to ROB full
system.switch_cpus3.rename.IQFullEvents     168094673                       # Number of times rename has blocked due to IQ full
system.switch_cpus3.rename.LQFullEvents     345182447                       # Number of times rename has blocked due to LQ full
system.switch_cpus3.rename.SQFullEvents     397645820                       # Number of times rename has blocked due to SQ full
system.switch_cpus3.rename.renamedOperands    624407470                       # Number of destination operands rename has renamed
system.switch_cpus3.rename.lookups         1460430505                       # Number of register rename lookups that rename has made
system.switch_cpus3.rename.intLookups       606445900                       # Number of integer rename lookups
system.switch_cpus3.rename.fpLookups        384756208                       # Number of floating rename lookups
system.switch_cpus3.rename.committedMaps    472228543                       # Number of HB maps that are committed
system.switch_cpus3.rename.undoneMaps       152178817                       # Number of HB maps that are undone due to squashing
system.switch_cpus3.rename.serializing              0                       # count of serializing insts renamed
system.switch_cpus3.rename.tempSerializing            0                       # count of temporary serializing insts renamed
system.switch_cpus3.rename.skidInsts        164855332                       # count of insts added to the skid buffer
system.switch_cpus3.rob.reads              2579081229                       # The number of ROB reads
system.switch_cpus3.rob.writes             1182319256                       # The number of ROB writes
system.switch_cpus3.thread0.numInsts        249848558                       # Number of Instructions committed
system.switch_cpus3.thread0.numOps          446725272                       # Number of Ops committed
system.switch_cpus3.thread0.numMemRefs              0                       # Number of Memory References
system.voltage_domain.voltage                       1                       # Voltage in Volts

---------- End Simulation Statistics   ----------
