
---------- Begin Simulation Statistics ----------
final_tick                               18894274323489                       # Number of ticks from beginning of simulation (restored from checkpoints and never reset)
host_inst_rate                                  74287                       # Simulator instruction rate (inst/s)
host_mem_usage                               17865360                       # Number of bytes of host memory used
host_op_rate                                   132698                       # Simulator op (including micro ops) rate (op/s)
host_seconds                                 13134.46                       # Real time elapsed on the host
host_tick_rate                               51400079                       # Simulator tick rate (ticks/s)
sim_freq                                 1000000000000                       # Frequency of simulated ticks
sim_insts                                   975718185                       # Number of instructions simulated
sim_ops                                    1742914041                       # Number of ops (including micro ops) simulated
sim_seconds                                  0.675112                       # Number of seconds simulated
sim_ticks                                675112079466                       # Number of ticks simulated
system.cpu0.Branches                                1                       # Number of branches fetched
system.cpu0.committedInsts                         13                       # Number of instructions committed
system.cpu0.committedOps                           27                       # Number of ops (including micro ops) committed
system.cpu0.idle_fraction                           0                       # Percentage of idle cycles
system.cpu0.l2bus.snoop_filter.hit_multi_requests           19                       # Number of requests hitting in the snoop filter with multiple (>1) holders of the requested data.
system.cpu0.l2bus.snoop_filter.hit_multi_snoops            0                       # Number of snoops hitting in the snoop filter with multiple (>1) holders of the requested data.
system.cpu0.l2bus.snoop_filter.hit_single_requests     12218693                       # Number of requests hitting in the snoop filter with a single holder of the requested data.
system.cpu0.l2bus.snoop_filter.hit_single_snoops         3582                       # Number of snoops hitting in the snoop filter with a single holder of the requested data.
system.cpu0.l2bus.snoop_filter.tot_requests     24434380                       # Total number of requests made to the snoop filter.
system.cpu0.l2bus.snoop_filter.tot_snoops         3582                       # Total number of snoops made to the snoop filter.
system.cpu0.mmucache.mmubus.snoop_filter.hit_multi_requests            0                       # Number of requests hitting in the snoop filter with multiple (>1) holders of the requested data.
system.cpu0.mmucache.mmubus.snoop_filter.hit_multi_snoops            0                       # Number of snoops hitting in the snoop filter with multiple (>1) holders of the requested data.
system.cpu0.mmucache.mmubus.snoop_filter.hit_single_requests            0                       # Number of requests hitting in the snoop filter with a single holder of the requested data.
system.cpu0.mmucache.mmubus.snoop_filter.hit_single_snoops            0                       # Number of snoops hitting in the snoop filter with a single holder of the requested data.
system.cpu0.mmucache.mmubus.snoop_filter.tot_requests            0                       # Total number of requests made to the snoop filter.
system.cpu0.mmucache.mmubus.snoop_filter.tot_snoops            0                       # Total number of snoops made to the snoop filter.
system.cpu0.not_idle_fraction                       1                       # Percentage of non-idle cycles
system.cpu0.numCycles                              33                       # number of cpu cycles simulated
system.cpu0.numWorkItemsCompleted                   0                       # number of work items this cpu completed
system.cpu0.numWorkItemsStarted                     0                       # number of work items this cpu started
system.cpu0.num_busy_cycles                        33                       # Number of busy cycles
system.cpu0.num_cc_register_reads                   5                       # number of times the CC registers were read
system.cpu0.num_conditional_control_insts            1                       # number of instructions that are conditional controls
system.cpu0.num_fp_alu_accesses                    24                       # Number of float alu accesses
system.cpu0.num_fp_insts                           24                       # number of float instructions
system.cpu0.num_fp_register_reads                  28                       # number of times the floating registers were read
system.cpu0.num_fp_register_writes                 24                       # number of times the floating registers were written
system.cpu0.num_func_calls                          0                       # number of times a function call or return occured
system.cpu0.num_idle_cycles                         0                       # Number of idle cycles
system.cpu0.num_int_alu_accesses                    7                       # Number of integer alu accesses
system.cpu0.num_int_insts                           7                       # number of integer instructions
system.cpu0.num_int_register_reads                 16                       # number of times the integer registers were read
system.cpu0.num_int_register_writes                 2                       # number of times the integer registers were written
system.cpu0.num_load_insts                          4                       # Number of load instructions
system.cpu0.num_mem_refs                            4                       # number of memory refs
system.cpu0.num_store_insts                         0                       # Number of store instructions
system.cpu0.num_vec_alu_accesses                    0                       # Number of vector alu accesses
system.cpu0.num_vec_insts                           0                       # number of vector instructions
system.cpu0.num_vec_register_reads                  0                       # number of times the vector registers were read
system.cpu0.num_vec_register_writes                 0                       # number of times the vector registers were written
system.cpu0.op_class::No_OpClass                    0      0.00%      0.00% # Class of executed instruction
system.cpu0.op_class::IntAlu                       11     40.74%     40.74% # Class of executed instruction
system.cpu0.op_class::IntMult                       0      0.00%     40.74% # Class of executed instruction
system.cpu0.op_class::IntDiv                        0      0.00%     40.74% # Class of executed instruction
system.cpu0.op_class::FloatAdd                      8     29.63%     70.37% # Class of executed instruction
system.cpu0.op_class::FloatCmp                      0      0.00%     70.37% # Class of executed instruction
system.cpu0.op_class::FloatCvt                      0      0.00%     70.37% # Class of executed instruction
system.cpu0.op_class::FloatMult                     0      0.00%     70.37% # Class of executed instruction
system.cpu0.op_class::FloatMultAcc                  0      0.00%     70.37% # Class of executed instruction
system.cpu0.op_class::FloatDiv                      0      0.00%     70.37% # Class of executed instruction
system.cpu0.op_class::FloatMisc                     0      0.00%     70.37% # Class of executed instruction
system.cpu0.op_class::FloatSqrt                     0      0.00%     70.37% # Class of executed instruction
system.cpu0.op_class::SimdAdd                       0      0.00%     70.37% # Class of executed instruction
system.cpu0.op_class::SimdAddAcc                    0      0.00%     70.37% # Class of executed instruction
system.cpu0.op_class::SimdAlu                       0      0.00%     70.37% # Class of executed instruction
system.cpu0.op_class::SimdCmp                       0      0.00%     70.37% # Class of executed instruction
system.cpu0.op_class::SimdCvt                       0      0.00%     70.37% # Class of executed instruction
system.cpu0.op_class::SimdMisc                      0      0.00%     70.37% # Class of executed instruction
system.cpu0.op_class::SimdMult                      0      0.00%     70.37% # Class of executed instruction
system.cpu0.op_class::SimdMultAcc                   0      0.00%     70.37% # Class of executed instruction
system.cpu0.op_class::SimdShift                     0      0.00%     70.37% # Class of executed instruction
system.cpu0.op_class::SimdShiftAcc                  0      0.00%     70.37% # Class of executed instruction
system.cpu0.op_class::SimdDiv                       0      0.00%     70.37% # Class of executed instruction
system.cpu0.op_class::SimdSqrt                      0      0.00%     70.37% # Class of executed instruction
system.cpu0.op_class::SimdFloatAdd                  0      0.00%     70.37% # Class of executed instruction
system.cpu0.op_class::SimdFloatAlu                  0      0.00%     70.37% # Class of executed instruction
system.cpu0.op_class::SimdFloatCmp                  4     14.81%     85.19% # Class of executed instruction
system.cpu0.op_class::SimdFloatCvt                  0      0.00%     85.19% # Class of executed instruction
system.cpu0.op_class::SimdFloatDiv                  0      0.00%     85.19% # Class of executed instruction
system.cpu0.op_class::SimdFloatMisc                 0      0.00%     85.19% # Class of executed instruction
system.cpu0.op_class::SimdFloatMult                 0      0.00%     85.19% # Class of executed instruction
system.cpu0.op_class::SimdFloatMultAcc              0      0.00%     85.19% # Class of executed instruction
system.cpu0.op_class::SimdFloatSqrt                 0      0.00%     85.19% # Class of executed instruction
system.cpu0.op_class::SimdReduceAdd                 0      0.00%     85.19% # Class of executed instruction
system.cpu0.op_class::SimdReduceAlu                 0      0.00%     85.19% # Class of executed instruction
system.cpu0.op_class::SimdReduceCmp                 0      0.00%     85.19% # Class of executed instruction
system.cpu0.op_class::SimdFloatReduceAdd            0      0.00%     85.19% # Class of executed instruction
system.cpu0.op_class::SimdFloatReduceCmp            0      0.00%     85.19% # Class of executed instruction
system.cpu0.op_class::SimdAes                       0      0.00%     85.19% # Class of executed instruction
system.cpu0.op_class::SimdAesMix                    0      0.00%     85.19% # Class of executed instruction
system.cpu0.op_class::SimdSha1Hash                  0      0.00%     85.19% # Class of executed instruction
system.cpu0.op_class::SimdSha1Hash2                 0      0.00%     85.19% # Class of executed instruction
system.cpu0.op_class::SimdSha256Hash                0      0.00%     85.19% # Class of executed instruction
system.cpu0.op_class::SimdSha256Hash2               0      0.00%     85.19% # Class of executed instruction
system.cpu0.op_class::SimdShaSigma2                 0      0.00%     85.19% # Class of executed instruction
system.cpu0.op_class::SimdShaSigma3                 0      0.00%     85.19% # Class of executed instruction
system.cpu0.op_class::SimdPredAlu                   0      0.00%     85.19% # Class of executed instruction
system.cpu0.op_class::MemRead                       0      0.00%     85.19% # Class of executed instruction
system.cpu0.op_class::MemWrite                      0      0.00%     85.19% # Class of executed instruction
system.cpu0.op_class::FloatMemRead                  4     14.81%    100.00% # Class of executed instruction
system.cpu0.op_class::FloatMemWrite                 0      0.00%    100.00% # Class of executed instruction
system.cpu0.op_class::IprAccess                     0      0.00%    100.00% # Class of executed instruction
system.cpu0.op_class::InstPrefetch                  0      0.00%    100.00% # Class of executed instruction
system.cpu0.op_class::total                        27                       # Class of executed instruction
system.cpu0.workload.numSyscalls                    0                       # Number of system calls
system.cpu1.Branches                                1                       # Number of branches fetched
system.cpu1.committedInsts                         16                       # Number of instructions committed
system.cpu1.committedOps                           23                       # Number of ops (including micro ops) committed
system.cpu1.idle_fraction                           0                       # Percentage of idle cycles
system.cpu1.l2bus.snoop_filter.hit_multi_requests           14                       # Number of requests hitting in the snoop filter with multiple (>1) holders of the requested data.
system.cpu1.l2bus.snoop_filter.hit_multi_snoops            0                       # Number of snoops hitting in the snoop filter with multiple (>1) holders of the requested data.
system.cpu1.l2bus.snoop_filter.hit_single_requests     12064786                       # Number of requests hitting in the snoop filter with a single holder of the requested data.
system.cpu1.l2bus.snoop_filter.hit_single_snoops      5248419                       # Number of snoops hitting in the snoop filter with a single holder of the requested data.
system.cpu1.l2bus.snoop_filter.tot_requests     24124363                       # Total number of requests made to the snoop filter.
system.cpu1.l2bus.snoop_filter.tot_snoops      5248419                       # Total number of snoops made to the snoop filter.
system.cpu1.mmucache.mmubus.snoop_filter.hit_multi_requests            0                       # Number of requests hitting in the snoop filter with multiple (>1) holders of the requested data.
system.cpu1.mmucache.mmubus.snoop_filter.hit_multi_snoops            0                       # Number of snoops hitting in the snoop filter with multiple (>1) holders of the requested data.
system.cpu1.mmucache.mmubus.snoop_filter.hit_single_requests            0                       # Number of requests hitting in the snoop filter with a single holder of the requested data.
system.cpu1.mmucache.mmubus.snoop_filter.hit_single_snoops            0                       # Number of snoops hitting in the snoop filter with a single holder of the requested data.
system.cpu1.mmucache.mmubus.snoop_filter.tot_requests            0                       # Total number of requests made to the snoop filter.
system.cpu1.mmucache.mmubus.snoop_filter.tot_snoops            0                       # Total number of snoops made to the snoop filter.
system.cpu1.not_idle_fraction                       1                       # Percentage of non-idle cycles
system.cpu1.numCycles                              31                       # number of cpu cycles simulated
system.cpu1.numWorkItemsCompleted                   0                       # number of work items this cpu completed
system.cpu1.numWorkItemsStarted                     0                       # number of work items this cpu started
system.cpu1.num_busy_cycles                        31                       # Number of busy cycles
system.cpu1.num_cc_register_reads                   7                       # number of times the CC registers were read
system.cpu1.num_cc_register_writes                  2                       # number of times the CC registers were written
system.cpu1.num_conditional_control_insts            1                       # number of instructions that are conditional controls
system.cpu1.num_fp_alu_accesses                    20                       # Number of float alu accesses
system.cpu1.num_fp_insts                           20                       # number of float instructions
system.cpu1.num_fp_register_reads                  43                       # number of times the floating registers were read
system.cpu1.num_fp_register_writes                 19                       # number of times the floating registers were written
system.cpu1.num_func_calls                          0                       # number of times a function call or return occured
system.cpu1.num_idle_cycles                         0                       # Number of idle cycles
system.cpu1.num_int_alu_accesses                    5                       # Number of integer alu accesses
system.cpu1.num_int_insts                           5                       # number of integer instructions
system.cpu1.num_int_register_reads                 10                       # number of times the integer registers were read
system.cpu1.num_int_register_writes                 2                       # number of times the integer registers were written
system.cpu1.num_load_insts                          2                       # Number of load instructions
system.cpu1.num_mem_refs                            2                       # number of memory refs
system.cpu1.num_store_insts                         0                       # Number of store instructions
system.cpu1.num_vec_alu_accesses                    0                       # Number of vector alu accesses
system.cpu1.num_vec_insts                           0                       # number of vector instructions
system.cpu1.num_vec_register_reads                  0                       # number of times the vector registers were read
system.cpu1.num_vec_register_writes                 0                       # number of times the vector registers were written
system.cpu1.op_class::No_OpClass                    0      0.00%      0.00% # Class of executed instruction
system.cpu1.op_class::IntAlu                        7     30.43%     30.43% # Class of executed instruction
system.cpu1.op_class::IntMult                       0      0.00%     30.43% # Class of executed instruction
system.cpu1.op_class::IntDiv                        0      0.00%     30.43% # Class of executed instruction
system.cpu1.op_class::FloatAdd                      2      8.70%     39.13% # Class of executed instruction
system.cpu1.op_class::FloatCmp                      0      0.00%     39.13% # Class of executed instruction
system.cpu1.op_class::FloatCvt                      0      0.00%     39.13% # Class of executed instruction
system.cpu1.op_class::FloatMult                     0      0.00%     39.13% # Class of executed instruction
system.cpu1.op_class::FloatMultAcc                  0      0.00%     39.13% # Class of executed instruction
system.cpu1.op_class::FloatDiv                      0      0.00%     39.13% # Class of executed instruction
system.cpu1.op_class::FloatMisc                     0      0.00%     39.13% # Class of executed instruction
system.cpu1.op_class::FloatSqrt                     0      0.00%     39.13% # Class of executed instruction
system.cpu1.op_class::SimdAdd                       0      0.00%     39.13% # Class of executed instruction
system.cpu1.op_class::SimdAddAcc                    0      0.00%     39.13% # Class of executed instruction
system.cpu1.op_class::SimdAlu                       0      0.00%     39.13% # Class of executed instruction
system.cpu1.op_class::SimdCmp                       0      0.00%     39.13% # Class of executed instruction
system.cpu1.op_class::SimdCvt                       0      0.00%     39.13% # Class of executed instruction
system.cpu1.op_class::SimdMisc                      0      0.00%     39.13% # Class of executed instruction
system.cpu1.op_class::SimdMult                      0      0.00%     39.13% # Class of executed instruction
system.cpu1.op_class::SimdMultAcc                   0      0.00%     39.13% # Class of executed instruction
system.cpu1.op_class::SimdShift                     0      0.00%     39.13% # Class of executed instruction
system.cpu1.op_class::SimdShiftAcc                  0      0.00%     39.13% # Class of executed instruction
system.cpu1.op_class::SimdDiv                       0      0.00%     39.13% # Class of executed instruction
system.cpu1.op_class::SimdSqrt                      0      0.00%     39.13% # Class of executed instruction
system.cpu1.op_class::SimdFloatAdd                  5     21.74%     60.87% # Class of executed instruction
system.cpu1.op_class::SimdFloatAlu                  0      0.00%     60.87% # Class of executed instruction
system.cpu1.op_class::SimdFloatCmp                  1      4.35%     65.22% # Class of executed instruction
system.cpu1.op_class::SimdFloatCvt                  1      4.35%     69.57% # Class of executed instruction
system.cpu1.op_class::SimdFloatDiv                  0      0.00%     69.57% # Class of executed instruction
system.cpu1.op_class::SimdFloatMisc                 0      0.00%     69.57% # Class of executed instruction
system.cpu1.op_class::SimdFloatMult                 5     21.74%     91.30% # Class of executed instruction
system.cpu1.op_class::SimdFloatMultAcc              0      0.00%     91.30% # Class of executed instruction
system.cpu1.op_class::SimdFloatSqrt                 0      0.00%     91.30% # Class of executed instruction
system.cpu1.op_class::SimdReduceAdd                 0      0.00%     91.30% # Class of executed instruction
system.cpu1.op_class::SimdReduceAlu                 0      0.00%     91.30% # Class of executed instruction
system.cpu1.op_class::SimdReduceCmp                 0      0.00%     91.30% # Class of executed instruction
system.cpu1.op_class::SimdFloatReduceAdd            0      0.00%     91.30% # Class of executed instruction
system.cpu1.op_class::SimdFloatReduceCmp            0      0.00%     91.30% # Class of executed instruction
system.cpu1.op_class::SimdAes                       0      0.00%     91.30% # Class of executed instruction
system.cpu1.op_class::SimdAesMix                    0      0.00%     91.30% # Class of executed instruction
system.cpu1.op_class::SimdSha1Hash                  0      0.00%     91.30% # Class of executed instruction
system.cpu1.op_class::SimdSha1Hash2                 0      0.00%     91.30% # Class of executed instruction
system.cpu1.op_class::SimdSha256Hash                0      0.00%     91.30% # Class of executed instruction
system.cpu1.op_class::SimdSha256Hash2               0      0.00%     91.30% # Class of executed instruction
system.cpu1.op_class::SimdShaSigma2                 0      0.00%     91.30% # Class of executed instruction
system.cpu1.op_class::SimdShaSigma3                 0      0.00%     91.30% # Class of executed instruction
system.cpu1.op_class::SimdPredAlu                   0      0.00%     91.30% # Class of executed instruction
system.cpu1.op_class::MemRead                       0      0.00%     91.30% # Class of executed instruction
system.cpu1.op_class::MemWrite                      0      0.00%     91.30% # Class of executed instruction
system.cpu1.op_class::FloatMemRead                  2      8.70%    100.00% # Class of executed instruction
system.cpu1.op_class::FloatMemWrite                 0      0.00%    100.00% # Class of executed instruction
system.cpu1.op_class::IprAccess                     0      0.00%    100.00% # Class of executed instruction
system.cpu1.op_class::InstPrefetch                  0      0.00%    100.00% # Class of executed instruction
system.cpu1.op_class::total                        23                       # Class of executed instruction
system.cpu1.workload.numSyscalls                    0                       # Number of system calls
system.cpu2.Branches                                1                       # Number of branches fetched
system.cpu2.committedInsts                         13                       # Number of instructions committed
system.cpu2.committedOps                           27                       # Number of ops (including micro ops) committed
system.cpu2.idle_fraction                           0                       # Percentage of idle cycles
system.cpu2.l2bus.snoop_filter.hit_multi_requests           18                       # Number of requests hitting in the snoop filter with multiple (>1) holders of the requested data.
system.cpu2.l2bus.snoop_filter.hit_multi_snoops            0                       # Number of snoops hitting in the snoop filter with multiple (>1) holders of the requested data.
system.cpu2.l2bus.snoop_filter.hit_single_requests     12235022                       # Number of requests hitting in the snoop filter with a single holder of the requested data.
system.cpu2.l2bus.snoop_filter.hit_single_snoops         3485                       # Number of snoops hitting in the snoop filter with a single holder of the requested data.
system.cpu2.l2bus.snoop_filter.tot_requests     24467274                       # Total number of requests made to the snoop filter.
system.cpu2.l2bus.snoop_filter.tot_snoops         3485                       # Total number of snoops made to the snoop filter.
system.cpu2.mmucache.mmubus.snoop_filter.hit_multi_requests            0                       # Number of requests hitting in the snoop filter with multiple (>1) holders of the requested data.
system.cpu2.mmucache.mmubus.snoop_filter.hit_multi_snoops            0                       # Number of snoops hitting in the snoop filter with multiple (>1) holders of the requested data.
system.cpu2.mmucache.mmubus.snoop_filter.hit_single_requests            0                       # Number of requests hitting in the snoop filter with a single holder of the requested data.
system.cpu2.mmucache.mmubus.snoop_filter.hit_single_snoops            0                       # Number of snoops hitting in the snoop filter with a single holder of the requested data.
system.cpu2.mmucache.mmubus.snoop_filter.tot_requests            0                       # Total number of requests made to the snoop filter.
system.cpu2.mmucache.mmubus.snoop_filter.tot_snoops            0                       # Total number of snoops made to the snoop filter.
system.cpu2.not_idle_fraction                       1                       # Percentage of non-idle cycles
system.cpu2.numCycles                              33                       # number of cpu cycles simulated
system.cpu2.numWorkItemsCompleted                   0                       # number of work items this cpu completed
system.cpu2.numWorkItemsStarted                     0                       # number of work items this cpu started
system.cpu2.num_busy_cycles                        33                       # Number of busy cycles
system.cpu2.num_cc_register_reads                   5                       # number of times the CC registers were read
system.cpu2.num_conditional_control_insts            1                       # number of instructions that are conditional controls
system.cpu2.num_fp_alu_accesses                    24                       # Number of float alu accesses
system.cpu2.num_fp_insts                           24                       # number of float instructions
system.cpu2.num_fp_register_reads                  28                       # number of times the floating registers were read
system.cpu2.num_fp_register_writes                 24                       # number of times the floating registers were written
system.cpu2.num_func_calls                          0                       # number of times a function call or return occured
system.cpu2.num_idle_cycles                         0                       # Number of idle cycles
system.cpu2.num_int_alu_accesses                    7                       # Number of integer alu accesses
system.cpu2.num_int_insts                           7                       # number of integer instructions
system.cpu2.num_int_register_reads                 16                       # number of times the integer registers were read
system.cpu2.num_int_register_writes                 2                       # number of times the integer registers were written
system.cpu2.num_load_insts                          4                       # Number of load instructions
system.cpu2.num_mem_refs                            4                       # number of memory refs
system.cpu2.num_store_insts                         0                       # Number of store instructions
system.cpu2.num_vec_alu_accesses                    0                       # Number of vector alu accesses
system.cpu2.num_vec_insts                           0                       # number of vector instructions
system.cpu2.num_vec_register_reads                  0                       # number of times the vector registers were read
system.cpu2.num_vec_register_writes                 0                       # number of times the vector registers were written
system.cpu2.op_class::No_OpClass                    0      0.00%      0.00% # Class of executed instruction
system.cpu2.op_class::IntAlu                       11     40.74%     40.74% # Class of executed instruction
system.cpu2.op_class::IntMult                       0      0.00%     40.74% # Class of executed instruction
system.cpu2.op_class::IntDiv                        0      0.00%     40.74% # Class of executed instruction
system.cpu2.op_class::FloatAdd                      8     29.63%     70.37% # Class of executed instruction
system.cpu2.op_class::FloatCmp                      0      0.00%     70.37% # Class of executed instruction
system.cpu2.op_class::FloatCvt                      0      0.00%     70.37% # Class of executed instruction
system.cpu2.op_class::FloatMult                     0      0.00%     70.37% # Class of executed instruction
system.cpu2.op_class::FloatMultAcc                  0      0.00%     70.37% # Class of executed instruction
system.cpu2.op_class::FloatDiv                      0      0.00%     70.37% # Class of executed instruction
system.cpu2.op_class::FloatMisc                     0      0.00%     70.37% # Class of executed instruction
system.cpu2.op_class::FloatSqrt                     0      0.00%     70.37% # Class of executed instruction
system.cpu2.op_class::SimdAdd                       0      0.00%     70.37% # Class of executed instruction
system.cpu2.op_class::SimdAddAcc                    0      0.00%     70.37% # Class of executed instruction
system.cpu2.op_class::SimdAlu                       0      0.00%     70.37% # Class of executed instruction
system.cpu2.op_class::SimdCmp                       0      0.00%     70.37% # Class of executed instruction
system.cpu2.op_class::SimdCvt                       0      0.00%     70.37% # Class of executed instruction
system.cpu2.op_class::SimdMisc                      0      0.00%     70.37% # Class of executed instruction
system.cpu2.op_class::SimdMult                      0      0.00%     70.37% # Class of executed instruction
system.cpu2.op_class::SimdMultAcc                   0      0.00%     70.37% # Class of executed instruction
system.cpu2.op_class::SimdShift                     0      0.00%     70.37% # Class of executed instruction
system.cpu2.op_class::SimdShiftAcc                  0      0.00%     70.37% # Class of executed instruction
system.cpu2.op_class::SimdDiv                       0      0.00%     70.37% # Class of executed instruction
system.cpu2.op_class::SimdSqrt                      0      0.00%     70.37% # Class of executed instruction
system.cpu2.op_class::SimdFloatAdd                  0      0.00%     70.37% # Class of executed instruction
system.cpu2.op_class::SimdFloatAlu                  0      0.00%     70.37% # Class of executed instruction
system.cpu2.op_class::SimdFloatCmp                  4     14.81%     85.19% # Class of executed instruction
system.cpu2.op_class::SimdFloatCvt                  0      0.00%     85.19% # Class of executed instruction
system.cpu2.op_class::SimdFloatDiv                  0      0.00%     85.19% # Class of executed instruction
system.cpu2.op_class::SimdFloatMisc                 0      0.00%     85.19% # Class of executed instruction
system.cpu2.op_class::SimdFloatMult                 0      0.00%     85.19% # Class of executed instruction
system.cpu2.op_class::SimdFloatMultAcc              0      0.00%     85.19% # Class of executed instruction
system.cpu2.op_class::SimdFloatSqrt                 0      0.00%     85.19% # Class of executed instruction
system.cpu2.op_class::SimdReduceAdd                 0      0.00%     85.19% # Class of executed instruction
system.cpu2.op_class::SimdReduceAlu                 0      0.00%     85.19% # Class of executed instruction
system.cpu2.op_class::SimdReduceCmp                 0      0.00%     85.19% # Class of executed instruction
system.cpu2.op_class::SimdFloatReduceAdd            0      0.00%     85.19% # Class of executed instruction
system.cpu2.op_class::SimdFloatReduceCmp            0      0.00%     85.19% # Class of executed instruction
system.cpu2.op_class::SimdAes                       0      0.00%     85.19% # Class of executed instruction
system.cpu2.op_class::SimdAesMix                    0      0.00%     85.19% # Class of executed instruction
system.cpu2.op_class::SimdSha1Hash                  0      0.00%     85.19% # Class of executed instruction
system.cpu2.op_class::SimdSha1Hash2                 0      0.00%     85.19% # Class of executed instruction
system.cpu2.op_class::SimdSha256Hash                0      0.00%     85.19% # Class of executed instruction
system.cpu2.op_class::SimdSha256Hash2               0      0.00%     85.19% # Class of executed instruction
system.cpu2.op_class::SimdShaSigma2                 0      0.00%     85.19% # Class of executed instruction
system.cpu2.op_class::SimdShaSigma3                 0      0.00%     85.19% # Class of executed instruction
system.cpu2.op_class::SimdPredAlu                   0      0.00%     85.19% # Class of executed instruction
system.cpu2.op_class::MemRead                       0      0.00%     85.19% # Class of executed instruction
system.cpu2.op_class::MemWrite                      0      0.00%     85.19% # Class of executed instruction
system.cpu2.op_class::FloatMemRead                  4     14.81%    100.00% # Class of executed instruction
system.cpu2.op_class::FloatMemWrite                 0      0.00%    100.00% # Class of executed instruction
system.cpu2.op_class::IprAccess                     0      0.00%    100.00% # Class of executed instruction
system.cpu2.op_class::InstPrefetch                  0      0.00%    100.00% # Class of executed instruction
system.cpu2.op_class::total                        27                       # Class of executed instruction
system.cpu2.workload.numSyscalls                    0                       # Number of system calls
system.cpu3.committedInsts                         15                       # Number of instructions committed
system.cpu3.committedOps                           24                       # Number of ops (including micro ops) committed
system.cpu3.idle_fraction                           0                       # Percentage of idle cycles
system.cpu3.l2bus.snoop_filter.hit_multi_requests           14                       # Number of requests hitting in the snoop filter with multiple (>1) holders of the requested data.
system.cpu3.l2bus.snoop_filter.hit_multi_snoops            1                       # Number of snoops hitting in the snoop filter with multiple (>1) holders of the requested data.
system.cpu3.l2bus.snoop_filter.hit_single_requests     12072183                       # Number of requests hitting in the snoop filter with a single holder of the requested data.
system.cpu3.l2bus.snoop_filter.hit_single_snoops      5248854                       # Number of snoops hitting in the snoop filter with a single holder of the requested data.
system.cpu3.l2bus.snoop_filter.tot_requests     24138815                       # Total number of requests made to the snoop filter.
system.cpu3.l2bus.snoop_filter.tot_snoops      5248855                       # Total number of snoops made to the snoop filter.
system.cpu3.mmucache.mmubus.snoop_filter.hit_multi_requests            0                       # Number of requests hitting in the snoop filter with multiple (>1) holders of the requested data.
system.cpu3.mmucache.mmubus.snoop_filter.hit_multi_snoops            0                       # Number of snoops hitting in the snoop filter with multiple (>1) holders of the requested data.
system.cpu3.mmucache.mmubus.snoop_filter.hit_single_requests            0                       # Number of requests hitting in the snoop filter with a single holder of the requested data.
system.cpu3.mmucache.mmubus.snoop_filter.hit_single_snoops            0                       # Number of snoops hitting in the snoop filter with a single holder of the requested data.
system.cpu3.mmucache.mmubus.snoop_filter.tot_requests            0                       # Total number of requests made to the snoop filter.
system.cpu3.mmucache.mmubus.snoop_filter.tot_snoops            0                       # Total number of snoops made to the snoop filter.
system.cpu3.not_idle_fraction                       1                       # Percentage of non-idle cycles
system.cpu3.numCycles                              31                       # number of cpu cycles simulated
system.cpu3.numWorkItemsCompleted                   0                       # number of work items this cpu completed
system.cpu3.numWorkItemsStarted                     0                       # number of work items this cpu started
system.cpu3.num_busy_cycles                        31                       # Number of busy cycles
system.cpu3.num_cc_register_reads                   2                       # number of times the CC registers were read
system.cpu3.num_cc_register_writes                  2                       # number of times the CC registers were written
system.cpu3.num_conditional_control_insts            0                       # number of instructions that are conditional controls
system.cpu3.num_fp_alu_accesses                    24                       # Number of float alu accesses
system.cpu3.num_fp_insts                           24                       # number of float instructions
system.cpu3.num_fp_register_reads                  40                       # number of times the floating registers were read
system.cpu3.num_fp_register_writes                 23                       # number of times the floating registers were written
system.cpu3.num_func_calls                          0                       # number of times a function call or return occured
system.cpu3.num_idle_cycles                         0                       # Number of idle cycles
system.cpu3.num_int_alu_accesses                    5                       # Number of integer alu accesses
system.cpu3.num_int_insts                           5                       # number of integer instructions
system.cpu3.num_int_register_reads                 15                       # number of times the integer registers were read
system.cpu3.num_int_register_writes                 0                       # number of times the integer registers were written
system.cpu3.num_load_insts                          5                       # Number of load instructions
system.cpu3.num_mem_refs                            5                       # number of memory refs
system.cpu3.num_store_insts                         0                       # Number of store instructions
system.cpu3.num_vec_alu_accesses                    0                       # Number of vector alu accesses
system.cpu3.num_vec_insts                           0                       # number of vector instructions
system.cpu3.num_vec_register_reads                  0                       # number of times the vector registers were read
system.cpu3.num_vec_register_writes                 0                       # number of times the vector registers were written
system.cpu3.op_class::No_OpClass                    0      0.00%      0.00% # Class of executed instruction
system.cpu3.op_class::IntAlu                        4     16.67%     16.67% # Class of executed instruction
system.cpu3.op_class::IntMult                       0      0.00%     16.67% # Class of executed instruction
system.cpu3.op_class::IntDiv                        0      0.00%     16.67% # Class of executed instruction
system.cpu3.op_class::FloatAdd                      4     16.67%     33.33% # Class of executed instruction
system.cpu3.op_class::FloatCmp                      0      0.00%     33.33% # Class of executed instruction
system.cpu3.op_class::FloatCvt                      0      0.00%     33.33% # Class of executed instruction
system.cpu3.op_class::FloatMult                     0      0.00%     33.33% # Class of executed instruction
system.cpu3.op_class::FloatMultAcc                  0      0.00%     33.33% # Class of executed instruction
system.cpu3.op_class::FloatDiv                      0      0.00%     33.33% # Class of executed instruction
system.cpu3.op_class::FloatMisc                     0      0.00%     33.33% # Class of executed instruction
system.cpu3.op_class::FloatSqrt                     0      0.00%     33.33% # Class of executed instruction
system.cpu3.op_class::SimdAdd                       0      0.00%     33.33% # Class of executed instruction
system.cpu3.op_class::SimdAddAcc                    0      0.00%     33.33% # Class of executed instruction
system.cpu3.op_class::SimdAlu                       0      0.00%     33.33% # Class of executed instruction
system.cpu3.op_class::SimdCmp                       0      0.00%     33.33% # Class of executed instruction
system.cpu3.op_class::SimdCvt                       0      0.00%     33.33% # Class of executed instruction
system.cpu3.op_class::SimdMisc                      0      0.00%     33.33% # Class of executed instruction
system.cpu3.op_class::SimdMult                      0      0.00%     33.33% # Class of executed instruction
system.cpu3.op_class::SimdMultAcc                   0      0.00%     33.33% # Class of executed instruction
system.cpu3.op_class::SimdShift                     0      0.00%     33.33% # Class of executed instruction
system.cpu3.op_class::SimdShiftAcc                  0      0.00%     33.33% # Class of executed instruction
system.cpu3.op_class::SimdDiv                       0      0.00%     33.33% # Class of executed instruction
system.cpu3.op_class::SimdSqrt                      0      0.00%     33.33% # Class of executed instruction
system.cpu3.op_class::SimdFloatAdd                  6     25.00%     58.33% # Class of executed instruction
system.cpu3.op_class::SimdFloatAlu                  0      0.00%     58.33% # Class of executed instruction
system.cpu3.op_class::SimdFloatCmp                  1      4.17%     62.50% # Class of executed instruction
system.cpu3.op_class::SimdFloatCvt                  1      4.17%     66.67% # Class of executed instruction
system.cpu3.op_class::SimdFloatDiv                  0      0.00%     66.67% # Class of executed instruction
system.cpu3.op_class::SimdFloatMisc                 0      0.00%     66.67% # Class of executed instruction
system.cpu3.op_class::SimdFloatMult                 3     12.50%     79.17% # Class of executed instruction
system.cpu3.op_class::SimdFloatMultAcc              0      0.00%     79.17% # Class of executed instruction
system.cpu3.op_class::SimdFloatSqrt                 0      0.00%     79.17% # Class of executed instruction
system.cpu3.op_class::SimdReduceAdd                 0      0.00%     79.17% # Class of executed instruction
system.cpu3.op_class::SimdReduceAlu                 0      0.00%     79.17% # Class of executed instruction
system.cpu3.op_class::SimdReduceCmp                 0      0.00%     79.17% # Class of executed instruction
system.cpu3.op_class::SimdFloatReduceAdd            0      0.00%     79.17% # Class of executed instruction
system.cpu3.op_class::SimdFloatReduceCmp            0      0.00%     79.17% # Class of executed instruction
system.cpu3.op_class::SimdAes                       0      0.00%     79.17% # Class of executed instruction
system.cpu3.op_class::SimdAesMix                    0      0.00%     79.17% # Class of executed instruction
system.cpu3.op_class::SimdSha1Hash                  0      0.00%     79.17% # Class of executed instruction
system.cpu3.op_class::SimdSha1Hash2                 0      0.00%     79.17% # Class of executed instruction
system.cpu3.op_class::SimdSha256Hash                0      0.00%     79.17% # Class of executed instruction
system.cpu3.op_class::SimdSha256Hash2               0      0.00%     79.17% # Class of executed instruction
system.cpu3.op_class::SimdShaSigma2                 0      0.00%     79.17% # Class of executed instruction
system.cpu3.op_class::SimdShaSigma3                 0      0.00%     79.17% # Class of executed instruction
system.cpu3.op_class::SimdPredAlu                   0      0.00%     79.17% # Class of executed instruction
system.cpu3.op_class::MemRead                       0      0.00%     79.17% # Class of executed instruction
system.cpu3.op_class::MemWrite                      0      0.00%     79.17% # Class of executed instruction
system.cpu3.op_class::FloatMemRead                  5     20.83%    100.00% # Class of executed instruction
system.cpu3.op_class::FloatMemWrite                 0      0.00%    100.00% # Class of executed instruction
system.cpu3.op_class::IprAccess                     0      0.00%    100.00% # Class of executed instruction
system.cpu3.op_class::InstPrefetch                  0      0.00%    100.00% # Class of executed instruction
system.cpu3.op_class::total                        24                       # Class of executed instruction
system.cpu3.workload.numSyscalls                    0                       # Number of system calls
system.l3bus.snoop_filter.hit_multi_requests            0                       # Number of requests hitting in the snoop filter with multiple (>1) holders of the requested data.
system.l3bus.snoop_filter.hit_multi_snoops            0                       # Number of snoops hitting in the snoop filter with multiple (>1) holders of the requested data.
system.l3bus.snoop_filter.hit_single_requests     42933111                       # Number of requests hitting in the snoop filter with a single holder of the requested data.
system.l3bus.snoop_filter.hit_single_snoops            0                       # Number of snoops hitting in the snoop filter with a single holder of the requested data.
system.l3bus.snoop_filter.tot_requests       85869451                       # Total number of requests made to the snoop filter.
system.l3bus.snoop_filter.tot_snoops                0                       # Total number of snoops made to the snoop filter.
system.membus.snoop_filter.hit_multi_requests            0                       # Number of requests hitting in the snoop filter with multiple (>1) holders of the requested data.
system.membus.snoop_filter.hit_multi_snoops            0                       # Number of snoops hitting in the snoop filter with multiple (>1) holders of the requested data.
system.membus.snoop_filter.hit_single_requests     34399077                       # Number of requests hitting in the snoop filter with a single holder of the requested data.
system.membus.snoop_filter.hit_single_snoops            0                       # Number of snoops hitting in the snoop filter with a single holder of the requested data.
system.membus.snoop_filter.tot_requests      68872868                       # Total number of requests made to the snoop filter.
system.membus.snoop_filter.tot_snoops               0                       # Total number of snoops made to the snoop filter.
system.switch_cpus0.cc_regfile_reads        200360927                       # number of cc regfile reads
system.switch_cpus0.cc_regfile_writes       124172248                       # number of cc regfile writes
system.switch_cpus0.committedInsts          249568171                       # Number of Instructions Simulated
system.switch_cpus0.committedOps            446225198                       # Number of Ops (including micro ops) Simulated
system.switch_cpus0.cpi                      8.123486                       # CPI: Cycles Per Instruction
system.switch_cpus0.cpi_total                8.123486                       # CPI: Total CPI of All Threads
system.switch_cpus0.fp_regfile_reads        381082770                       # number of floating regfile reads
system.switch_cpus0.fp_regfile_writes       287049705                       # number of floating regfile writes
system.switch_cpus0.idleCycles                  47075                       # Total number of cycles that the CPU has spent unscheduled due to idling
system.switch_cpus0.iew.branchMispredicts       655096                       # Number of branch mispredicts detected at execute
system.switch_cpus0.iew.exec_branches        29625746                       # Number of branches executed
system.switch_cpus0.iew.exec_nop                    0                       # number of nop insts executed
system.switch_cpus0.iew.exec_rate            0.296846                       # Inst execution rate
system.switch_cpus0.iew.exec_refs           186254115                       # number of memory reference insts executed
system.switch_cpus0.iew.exec_stores          65084825                       # Number of stores executed
system.switch_cpus0.iew.exec_swp                    0                       # number of swp insts executed
system.switch_cpus0.iew.iewBlockCycles      360398180                       # Number of cycles IEW is blocking
system.switch_cpus0.iew.iewDispLoadInsts    116153328                       # Number of dispatched load instructions
system.switch_cpus0.iew.iewDispNonSpecInsts          121                       # Number of dispatched non-speculative instructions
system.switch_cpus0.iew.iewDispSquashedInsts         8871                       # Number of squashed instructions skipped by dispatch
system.switch_cpus0.iew.iewDispStoreInsts     66668300                       # Number of dispatched store instructions
system.switch_cpus0.iew.iewDispatchedInsts    606662933                       # Number of instructions dispatched to IQ
system.switch_cpus0.iew.iewExecLoadInsts    121169290                       # Number of load instructions executed
system.switch_cpus0.iew.iewExecSquashedInsts      1366022                       # Number of squashed instructions skipped in execute
system.switch_cpus0.iew.iewExecutedInsts    601813976                       # Number of executed instructions
system.switch_cpus0.iew.iewIQFullEvents       1637709                       # Number of times the IQ has become full, causing a stall
system.switch_cpus0.iew.iewIdleCycles               0                       # Number of cycles IEW is idle
system.switch_cpus0.iew.iewLSQFullEvents    403545548                       # Number of times the LSQ has become full, causing a stall
system.switch_cpus0.iew.iewSquashCycles       1696521                       # Number of cycles IEW is squashing
system.switch_cpus0.iew.iewUnblockCycles    406101831                       # Number of cycles IEW is unblocking
system.switch_cpus0.iew.memOrderViolationEvents         7395                       # Number of memory order violations
system.switch_cpus0.iew.predictedNotTakenIncorrect       325403                       # Number of branches that were predicted not taken incorrectly
system.switch_cpus0.iew.predictedTakenIncorrect       329693                       # Number of branches that were predicted taken incorrectly
system.switch_cpus0.iew.wb_consumers        556350238                       # num instructions consuming a value
system.switch_cpus0.iew.wb_count            579849519                       # cumulative count of insts written-back
system.switch_cpus0.iew.wb_fanout            0.618834                       # average fanout of values written-back
system.switch_cpus0.iew.wb_producers        344288585                       # num instructions producing a value
system.switch_cpus0.iew.wb_rate              0.286012                       # insts written-back per cycle
system.switch_cpus0.iew.wb_sent             592990832                       # cumulative count of insts sent to commit
system.switch_cpus0.int_regfile_reads       593789779                       # number of integer regfile reads
system.switch_cpus0.int_regfile_writes      192612174                       # number of integer regfile writes
system.switch_cpus0.ipc                      0.123100                       # IPC: Instructions Per Cycle
system.switch_cpus0.ipc_total                0.123100                       # IPC: Total IPC of All Threads
system.switch_cpus0.iq.FU_type_0::No_OpClass     13174362      2.18%      2.18% # Type of FU issued
system.switch_cpus0.iq.FU_type_0::IntAlu    250905570     41.60%     43.78% # Type of FU issued
system.switch_cpus0.iq.FU_type_0::IntMult            0      0.00%     43.78% # Type of FU issued
system.switch_cpus0.iq.FU_type_0::IntDiv            0      0.00%     43.78% # Type of FU issued
system.switch_cpus0.iq.FU_type_0::FloatAdd     73507411     12.19%     55.97% # Type of FU issued
system.switch_cpus0.iq.FU_type_0::FloatCmp            0      0.00%     55.97% # Type of FU issued
system.switch_cpus0.iq.FU_type_0::FloatCvt            0      0.00%     55.97% # Type of FU issued
system.switch_cpus0.iq.FU_type_0::FloatMult            0      0.00%     55.97% # Type of FU issued
system.switch_cpus0.iq.FU_type_0::FloatMultAcc            0      0.00%     55.97% # Type of FU issued
system.switch_cpus0.iq.FU_type_0::FloatDiv            0      0.00%     55.97% # Type of FU issued
system.switch_cpus0.iq.FU_type_0::FloatMisc            0      0.00%     55.97% # Type of FU issued
system.switch_cpus0.iq.FU_type_0::FloatSqrt            0      0.00%     55.97% # Type of FU issued
system.switch_cpus0.iq.FU_type_0::SimdAdd            0      0.00%     55.97% # Type of FU issued
system.switch_cpus0.iq.FU_type_0::SimdAddAcc            0      0.00%     55.97% # Type of FU issued
system.switch_cpus0.iq.FU_type_0::SimdAlu        58144      0.01%     55.98% # Type of FU issued
system.switch_cpus0.iq.FU_type_0::SimdCmp            0      0.00%     55.98% # Type of FU issued
system.switch_cpus0.iq.FU_type_0::SimdCvt            0      0.00%     55.98% # Type of FU issued
system.switch_cpus0.iq.FU_type_0::SimdMisc            0      0.00%     55.98% # Type of FU issued
system.switch_cpus0.iq.FU_type_0::SimdMult            0      0.00%     55.98% # Type of FU issued
system.switch_cpus0.iq.FU_type_0::SimdMultAcc            0      0.00%     55.98% # Type of FU issued
system.switch_cpus0.iq.FU_type_0::SimdShift            0      0.00%     55.98% # Type of FU issued
system.switch_cpus0.iq.FU_type_0::SimdShiftAcc            0      0.00%     55.98% # Type of FU issued
system.switch_cpus0.iq.FU_type_0::SimdDiv            0      0.00%     55.98% # Type of FU issued
system.switch_cpus0.iq.FU_type_0::SimdSqrt            0      0.00%     55.98% # Type of FU issued
system.switch_cpus0.iq.FU_type_0::SimdFloatAdd     28656411      4.75%     60.73% # Type of FU issued
system.switch_cpus0.iq.FU_type_0::SimdFloatAlu            0      0.00%     60.73% # Type of FU issued
system.switch_cpus0.iq.FU_type_0::SimdFloatCmp     29599462      4.91%     65.64% # Type of FU issued
system.switch_cpus0.iq.FU_type_0::SimdFloatCvt      5702455      0.95%     66.58% # Type of FU issued
system.switch_cpus0.iq.FU_type_0::SimdFloatDiv            0      0.00%     66.58% # Type of FU issued
system.switch_cpus0.iq.FU_type_0::SimdFloatMisc            0      0.00%     66.58% # Type of FU issued
system.switch_cpus0.iq.FU_type_0::SimdFloatMult     14971843      2.48%     69.06% # Type of FU issued
system.switch_cpus0.iq.FU_type_0::SimdFloatMultAcc            0      0.00%     69.06% # Type of FU issued
system.switch_cpus0.iq.FU_type_0::SimdFloatSqrt            0      0.00%     69.06% # Type of FU issued
system.switch_cpus0.iq.FU_type_0::SimdReduceAdd            0      0.00%     69.06% # Type of FU issued
system.switch_cpus0.iq.FU_type_0::SimdReduceAlu            0      0.00%     69.06% # Type of FU issued
system.switch_cpus0.iq.FU_type_0::SimdReduceCmp            0      0.00%     69.06% # Type of FU issued
system.switch_cpus0.iq.FU_type_0::SimdFloatReduceAdd            0      0.00%     69.06% # Type of FU issued
system.switch_cpus0.iq.FU_type_0::SimdFloatReduceCmp            0      0.00%     69.06% # Type of FU issued
system.switch_cpus0.iq.FU_type_0::SimdAes            0      0.00%     69.06% # Type of FU issued
system.switch_cpus0.iq.FU_type_0::SimdAesMix            0      0.00%     69.06% # Type of FU issued
system.switch_cpus0.iq.FU_type_0::SimdSha1Hash            0      0.00%     69.06% # Type of FU issued
system.switch_cpus0.iq.FU_type_0::SimdSha1Hash2            0      0.00%     69.06% # Type of FU issued
system.switch_cpus0.iq.FU_type_0::SimdSha256Hash            0      0.00%     69.06% # Type of FU issued
system.switch_cpus0.iq.FU_type_0::SimdSha256Hash2            0      0.00%     69.06% # Type of FU issued
system.switch_cpus0.iq.FU_type_0::SimdShaSigma2            0      0.00%     69.06% # Type of FU issued
system.switch_cpus0.iq.FU_type_0::SimdShaSigma3            0      0.00%     69.06% # Type of FU issued
system.switch_cpus0.iq.FU_type_0::SimdPredAlu            0      0.00%     69.06% # Type of FU issued
system.switch_cpus0.iq.FU_type_0::MemRead     27335066      4.53%     73.60% # Type of FU issued
system.switch_cpus0.iq.FU_type_0::MemWrite     21752913      3.61%     77.20% # Type of FU issued
system.switch_cpus0.iq.FU_type_0::FloatMemRead     94081021     15.60%     92.80% # Type of FU issued
system.switch_cpus0.iq.FU_type_0::FloatMemWrite     43435342      7.20%    100.00% # Type of FU issued
system.switch_cpus0.iq.FU_type_0::IprAccess            0      0.00%    100.00% # Type of FU issued
system.switch_cpus0.iq.FU_type_0::InstPrefetch            0      0.00%    100.00% # Type of FU issued
system.switch_cpus0.iq.FU_type_0::total     603180000                       # Type of FU issued
system.switch_cpus0.iq.fp_alu_accesses      358086567                       # Number of floating point alu accesses
system.switch_cpus0.iq.fp_inst_queue_reads    701398800                       # Number of floating instruction queue reads
system.switch_cpus0.iq.fp_inst_queue_wakeup_accesses    336106839                       # Number of floating instruction queue wakeup accesses
system.switch_cpus0.iq.fp_inst_queue_writes    388692085                       # Number of floating instruction queue writes
system.switch_cpus0.iq.fu_busy_cnt           24737730                       # FU busy when requested
system.switch_cpus0.iq.fu_busy_rate          0.041012                       # FU busy rate (busy events/executed inst)
system.switch_cpus0.iq.fu_full::No_OpClass            0      0.00%      0.00% # attempts to use FU when none available
system.switch_cpus0.iq.fu_full::IntAlu        1247770      5.04%      5.04% # attempts to use FU when none available
system.switch_cpus0.iq.fu_full::IntMult             0      0.00%      5.04% # attempts to use FU when none available
system.switch_cpus0.iq.fu_full::IntDiv              0      0.00%      5.04% # attempts to use FU when none available
system.switch_cpus0.iq.fu_full::FloatAdd        21606      0.09%      5.13% # attempts to use FU when none available
system.switch_cpus0.iq.fu_full::FloatCmp            0      0.00%      5.13% # attempts to use FU when none available
system.switch_cpus0.iq.fu_full::FloatCvt            0      0.00%      5.13% # attempts to use FU when none available
system.switch_cpus0.iq.fu_full::FloatMult            0      0.00%      5.13% # attempts to use FU when none available
system.switch_cpus0.iq.fu_full::FloatMultAcc            0      0.00%      5.13% # attempts to use FU when none available
system.switch_cpus0.iq.fu_full::FloatDiv            0      0.00%      5.13% # attempts to use FU when none available
system.switch_cpus0.iq.fu_full::FloatMisc            0      0.00%      5.13% # attempts to use FU when none available
system.switch_cpus0.iq.fu_full::FloatSqrt            0      0.00%      5.13% # attempts to use FU when none available
system.switch_cpus0.iq.fu_full::SimdAdd             0      0.00%      5.13% # attempts to use FU when none available
system.switch_cpus0.iq.fu_full::SimdAddAcc            0      0.00%      5.13% # attempts to use FU when none available
system.switch_cpus0.iq.fu_full::SimdAlu             0      0.00%      5.13% # attempts to use FU when none available
system.switch_cpus0.iq.fu_full::SimdCmp             0      0.00%      5.13% # attempts to use FU when none available
system.switch_cpus0.iq.fu_full::SimdCvt             0      0.00%      5.13% # attempts to use FU when none available
system.switch_cpus0.iq.fu_full::SimdMisc            0      0.00%      5.13% # attempts to use FU when none available
system.switch_cpus0.iq.fu_full::SimdMult            0      0.00%      5.13% # attempts to use FU when none available
system.switch_cpus0.iq.fu_full::SimdMultAcc            0      0.00%      5.13% # attempts to use FU when none available
system.switch_cpus0.iq.fu_full::SimdShift            0      0.00%      5.13% # attempts to use FU when none available
system.switch_cpus0.iq.fu_full::SimdShiftAcc            0      0.00%      5.13% # attempts to use FU when none available
system.switch_cpus0.iq.fu_full::SimdDiv             0      0.00%      5.13% # attempts to use FU when none available
system.switch_cpus0.iq.fu_full::SimdSqrt            0      0.00%      5.13% # attempts to use FU when none available
system.switch_cpus0.iq.fu_full::SimdFloatAdd       213726      0.86%      6.00% # attempts to use FU when none available
system.switch_cpus0.iq.fu_full::SimdFloatAlu            0      0.00%      6.00% # attempts to use FU when none available
system.switch_cpus0.iq.fu_full::SimdFloatCmp       903550      3.65%      9.65% # attempts to use FU when none available
system.switch_cpus0.iq.fu_full::SimdFloatCvt            0      0.00%      9.65% # attempts to use FU when none available
system.switch_cpus0.iq.fu_full::SimdFloatDiv            0      0.00%      9.65% # attempts to use FU when none available
system.switch_cpus0.iq.fu_full::SimdFloatMisc            0      0.00%      9.65% # attempts to use FU when none available
system.switch_cpus0.iq.fu_full::SimdFloatMult        26122      0.11%      9.75% # attempts to use FU when none available
system.switch_cpus0.iq.fu_full::SimdFloatMultAcc            0      0.00%      9.75% # attempts to use FU when none available
system.switch_cpus0.iq.fu_full::SimdFloatSqrt            0      0.00%      9.75% # attempts to use FU when none available
system.switch_cpus0.iq.fu_full::SimdReduceAdd            0      0.00%      9.75% # attempts to use FU when none available
system.switch_cpus0.iq.fu_full::SimdReduceAlu            0      0.00%      9.75% # attempts to use FU when none available
system.switch_cpus0.iq.fu_full::SimdReduceCmp            0      0.00%      9.75% # attempts to use FU when none available
system.switch_cpus0.iq.fu_full::SimdFloatReduceAdd            0      0.00%      9.75% # attempts to use FU when none available
system.switch_cpus0.iq.fu_full::SimdFloatReduceCmp            0      0.00%      9.75% # attempts to use FU when none available
system.switch_cpus0.iq.fu_full::SimdAes             0      0.00%      9.75% # attempts to use FU when none available
system.switch_cpus0.iq.fu_full::SimdAesMix            0      0.00%      9.75% # attempts to use FU when none available
system.switch_cpus0.iq.fu_full::SimdSha1Hash            0      0.00%      9.75% # attempts to use FU when none available
system.switch_cpus0.iq.fu_full::SimdSha1Hash2            0      0.00%      9.75% # attempts to use FU when none available
system.switch_cpus0.iq.fu_full::SimdSha256Hash            0      0.00%      9.75% # attempts to use FU when none available
system.switch_cpus0.iq.fu_full::SimdSha256Hash2            0      0.00%      9.75% # attempts to use FU when none available
system.switch_cpus0.iq.fu_full::SimdShaSigma2            0      0.00%      9.75% # attempts to use FU when none available
system.switch_cpus0.iq.fu_full::SimdShaSigma3            0      0.00%      9.75% # attempts to use FU when none available
system.switch_cpus0.iq.fu_full::SimdPredAlu            0      0.00%      9.75% # attempts to use FU when none available
system.switch_cpus0.iq.fu_full::MemRead       1800129      7.28%     17.03% # attempts to use FU when none available
system.switch_cpus0.iq.fu_full::MemWrite      6917504     27.96%     44.99% # attempts to use FU when none available
system.switch_cpus0.iq.fu_full::FloatMemRead      9870563     39.90%     84.89% # attempts to use FU when none available
system.switch_cpus0.iq.fu_full::FloatMemWrite      3736760     15.11%    100.00% # attempts to use FU when none available
system.switch_cpus0.iq.fu_full::IprAccess            0      0.00%    100.00% # attempts to use FU when none available
system.switch_cpus0.iq.fu_full::InstPrefetch            0      0.00%    100.00% # attempts to use FU when none available
system.switch_cpus0.iq.int_alu_accesses     256656801                       # Number of integer alu accesses
system.switch_cpus0.iq.int_inst_queue_reads   2557211365                       # Number of integer instruction queue reads
system.switch_cpus0.iq.int_inst_queue_wakeup_accesses    243742680                       # Number of integer instruction queue wakeup accesses
system.switch_cpus0.iq.int_inst_queue_writes    378415675                       # Number of integer instruction queue writes
system.switch_cpus0.iq.iqInstsAdded         606652493                       # Number of instructions added to the IQ (excludes non-spec)
system.switch_cpus0.iq.iqInstsIssued        603180000                       # Number of instructions issued
system.switch_cpus0.iq.iqNonSpecInstsAdded        10440                       # Number of non-speculative instructions added to the IQ
system.switch_cpus0.iq.iqSquashedInstsExamined    160437618                       # Number of squashed instructions iterated over during squash; mainly for profiling
system.switch_cpus0.iq.iqSquashedInstsIssued       195943                       # Number of squashed instructions issued
system.switch_cpus0.iq.iqSquashedNonSpecRemoved         9399                       # Number of squashed non-spec instructions that were removed
system.switch_cpus0.iq.iqSquashedOperandsExamined     53020180                       # Number of squashed operands that are examined and possibly removed from graph
system.switch_cpus0.iq.issued_per_cycle::samples   2027316494                       # Number of insts issued each cycle
system.switch_cpus0.iq.issued_per_cycle::mean     0.297526                       # Number of insts issued each cycle
system.switch_cpus0.iq.issued_per_cycle::stdev     1.191006                       # Number of insts issued each cycle
system.switch_cpus0.iq.issued_per_cycle::underflows            0      0.00%      0.00% # Number of insts issued each cycle
system.switch_cpus0.iq.issued_per_cycle::0   1859615340     91.73%     91.73% # Number of insts issued each cycle
system.switch_cpus0.iq.issued_per_cycle::1     41730658      2.06%     93.79% # Number of insts issued each cycle
system.switch_cpus0.iq.issued_per_cycle::2     28530636      1.41%     95.19% # Number of insts issued each cycle
system.switch_cpus0.iq.issued_per_cycle::3     21164245      1.04%     96.24% # Number of insts issued each cycle
system.switch_cpus0.iq.issued_per_cycle::4     19970335      0.99%     97.22% # Number of insts issued each cycle
system.switch_cpus0.iq.issued_per_cycle::5     15949747      0.79%     98.01% # Number of insts issued each cycle
system.switch_cpus0.iq.issued_per_cycle::6     15765104      0.78%     98.79% # Number of insts issued each cycle
system.switch_cpus0.iq.issued_per_cycle::7     10048796      0.50%     99.28% # Number of insts issued each cycle
system.switch_cpus0.iq.issued_per_cycle::8     14541633      0.72%    100.00% # Number of insts issued each cycle
system.switch_cpus0.iq.issued_per_cycle::overflows            0      0.00%    100.00% # Number of insts issued each cycle
system.switch_cpus0.iq.issued_per_cycle::min_value            0                       # Number of insts issued each cycle
system.switch_cpus0.iq.issued_per_cycle::max_value            8                       # Number of insts issued each cycle
system.switch_cpus0.iq.issued_per_cycle::total   2027316494                       # Number of insts issued each cycle
system.switch_cpus0.iq.rate                  0.297519                       # Inst issue rate
system.switch_cpus0.iq.vec_alu_accesses             0                       # Number of vector alu accesses
system.switch_cpus0.iq.vec_inst_queue_reads            0                       # Number of vector instruction queue reads
system.switch_cpus0.iq.vec_inst_queue_wakeup_accesses            0                       # Number of vector instruction queue wakeup accesses
system.switch_cpus0.iq.vec_inst_queue_writes            0                       # Number of vector instruction queue writes
system.switch_cpus0.memDep0.conflictingLoads     17438849                       # Number of conflicting loads.
system.switch_cpus0.memDep0.conflictingStores     16692776                       # Number of conflicting stores.
system.switch_cpus0.memDep0.insertedLoads    116153328                       # Number of loads inserted to the mem dependence unit.
system.switch_cpus0.memDep0.insertedStores     66668300                       # Number of stores inserted to the mem dependence unit.
system.switch_cpus0.misc_regfile_reads      247237384                       # number of misc regfile reads
system.switch_cpus0.misc_regfile_writes             1                       # number of misc regfile writes
system.switch_cpus0.numCycles              2027363569                       # number of cpu cycles simulated
system.switch_cpus0.numWorkItemsCompleted            0                       # number of work items this cpu completed
system.switch_cpus0.numWorkItemsStarted             0                       # number of work items this cpu started
system.switch_cpus0.timesIdled                    152                       # Number of times that the entire CPU went into an idle state and unscheduled itself
system.switch_cpus1.cc_regfile_reads        190140391                       # number of cc regfile reads
system.switch_cpus1.cc_regfile_writes       118939482                       # number of cc regfile writes
system.switch_cpus1.committedInsts          237037201                       # Number of Instructions Simulated
system.switch_cpus1.committedOps            422885435                       # Number of Ops (including micro ops) Simulated
system.switch_cpus1.cpi                      8.552934                       # CPI: Cycles Per Instruction
system.switch_cpus1.cpi_total                8.552934                       # CPI: Total CPI of All Threads
system.switch_cpus1.fp_regfile_reads        366361831                       # number of floating regfile reads
system.switch_cpus1.fp_regfile_writes       275470096                       # number of floating regfile writes
system.switch_cpus1.idleCycles                  51189                       # Total number of cycles that the CPU has spent unscheduled due to idling
system.switch_cpus1.iew.branchMispredicts       589743                       # Number of branch mispredicts detected at execute
system.switch_cpus1.iew.exec_branches        27813673                       # Number of branches executed
system.switch_cpus1.iew.exec_nop                    0                       # number of nop insts executed
system.switch_cpus1.iew.exec_rate            0.283817                       # Inst execution rate
system.switch_cpus1.iew.exec_refs           179478578                       # number of memory reference insts executed
system.switch_cpus1.iew.exec_stores          62784049                       # Number of stores executed
system.switch_cpus1.iew.exec_swp                    0                       # number of swp insts executed
system.switch_cpus1.iew.iewBlockCycles      358807960                       # Number of cycles IEW is blocking
system.switch_cpus1.iew.iewDispLoadInsts    111322517                       # Number of dispatched load instructions
system.switch_cpus1.iew.iewDispNonSpecInsts           71                       # Number of dispatched non-speculative instructions
system.switch_cpus1.iew.iewDispSquashedInsts         8621                       # Number of squashed instructions skipped by dispatch
system.switch_cpus1.iew.iewDispStoreInsts     64193823                       # Number of dispatched store instructions
system.switch_cpus1.iew.iewDispatchedInsts    578953576                       # Number of instructions dispatched to IQ
system.switch_cpus1.iew.iewExecLoadInsts    116694529                       # Number of load instructions executed
system.switch_cpus1.iew.iewExecSquashedInsts      1163363                       # Number of squashed instructions skipped in execute
system.switch_cpus1.iew.iewExecutedInsts    575401042                       # Number of executed instructions
system.switch_cpus1.iew.iewIQFullEvents       1719093                       # Number of times the IQ has become full, causing a stall
system.switch_cpus1.iew.iewIdleCycles               0                       # Number of cycles IEW is idle
system.switch_cpus1.iew.iewLSQFullEvents    415347879                       # Number of times the LSQ has become full, causing a stall
system.switch_cpus1.iew.iewSquashCycles       1620867                       # Number of cycles IEW is squashing
system.switch_cpus1.iew.iewUnblockCycles    418038991                       # Number of cycles IEW is unblocking
system.switch_cpus1.iew.memOrderViolationEvents         5824                       # Number of memory order violations
system.switch_cpus1.iew.predictedNotTakenIncorrect       296650                       # Number of branches that were predicted not taken incorrectly
system.switch_cpus1.iew.predictedTakenIncorrect       293093                       # Number of branches that were predicted taken incorrectly
system.switch_cpus1.iew.wb_consumers        528508840                       # num instructions consuming a value
system.switch_cpus1.iew.wb_count            553430430                       # cumulative count of insts written-back
system.switch_cpus1.iew.wb_fanout            0.619470                       # average fanout of values written-back
system.switch_cpus1.iew.wb_producers        327395420                       # num instructions producing a value
system.switch_cpus1.iew.wb_rate              0.272980                       # insts written-back per cycle
system.switch_cpus1.iew.wb_sent             566336685                       # cumulative count of insts sent to commit
system.switch_cpus1.int_regfile_reads       567093861                       # number of integer regfile reads
system.switch_cpus1.int_regfile_writes      182163869                       # number of integer regfile writes
system.switch_cpus1.ipc                      0.116919                       # IPC: Instructions Per Cycle
system.switch_cpus1.ipc_total                0.116919                       # IPC: Total IPC of All Threads
system.switch_cpus1.iq.FU_type_0::No_OpClass     12882200      2.23%      2.23% # Type of FU issued
system.switch_cpus1.iq.FU_type_0::IntAlu    238072191     41.29%     43.53% # Type of FU issued
system.switch_cpus1.iq.FU_type_0::IntMult            0      0.00%     43.53% # Type of FU issued
system.switch_cpus1.iq.FU_type_0::IntDiv            0      0.00%     43.53% # Type of FU issued
system.switch_cpus1.iq.FU_type_0::FloatAdd     70050197     12.15%     55.68% # Type of FU issued
system.switch_cpus1.iq.FU_type_0::FloatCmp            0      0.00%     55.68% # Type of FU issued
system.switch_cpus1.iq.FU_type_0::FloatCvt           14      0.00%     55.68% # Type of FU issued
system.switch_cpus1.iq.FU_type_0::FloatMult            0      0.00%     55.68% # Type of FU issued
system.switch_cpus1.iq.FU_type_0::FloatMultAcc            0      0.00%     55.68% # Type of FU issued
system.switch_cpus1.iq.FU_type_0::FloatDiv            0      0.00%     55.68% # Type of FU issued
system.switch_cpus1.iq.FU_type_0::FloatMisc            0      0.00%     55.68% # Type of FU issued
system.switch_cpus1.iq.FU_type_0::FloatSqrt            0      0.00%     55.68% # Type of FU issued
system.switch_cpus1.iq.FU_type_0::SimdAdd            0      0.00%     55.68% # Type of FU issued
system.switch_cpus1.iq.FU_type_0::SimdAddAcc            0      0.00%     55.68% # Type of FU issued
system.switch_cpus1.iq.FU_type_0::SimdAlu        37404      0.01%     55.68% # Type of FU issued
system.switch_cpus1.iq.FU_type_0::SimdCmp            0      0.00%     55.68% # Type of FU issued
system.switch_cpus1.iq.FU_type_0::SimdCvt            0      0.00%     55.68% # Type of FU issued
system.switch_cpus1.iq.FU_type_0::SimdMisc            0      0.00%     55.68% # Type of FU issued
system.switch_cpus1.iq.FU_type_0::SimdMult            0      0.00%     55.68% # Type of FU issued
system.switch_cpus1.iq.FU_type_0::SimdMultAcc            0      0.00%     55.68% # Type of FU issued
system.switch_cpus1.iq.FU_type_0::SimdShift            0      0.00%     55.68% # Type of FU issued
system.switch_cpus1.iq.FU_type_0::SimdShiftAcc            0      0.00%     55.68% # Type of FU issued
system.switch_cpus1.iq.FU_type_0::SimdDiv            0      0.00%     55.68% # Type of FU issued
system.switch_cpus1.iq.FU_type_0::SimdSqrt            0      0.00%     55.68% # Type of FU issued
system.switch_cpus1.iq.FU_type_0::SimdFloatAdd     27553062      4.78%     60.46% # Type of FU issued
system.switch_cpus1.iq.FU_type_0::SimdFloatAlu            0      0.00%     60.46% # Type of FU issued
system.switch_cpus1.iq.FU_type_0::SimdFloatCmp     28414754      4.93%     65.39% # Type of FU issued
system.switch_cpus1.iq.FU_type_0::SimdFloatCvt      5389557      0.93%     66.32% # Type of FU issued
system.switch_cpus1.iq.FU_type_0::SimdFloatDiv            0      0.00%     66.32% # Type of FU issued
system.switch_cpus1.iq.FU_type_0::SimdFloatMisc            0      0.00%     66.32% # Type of FU issued
system.switch_cpus1.iq.FU_type_0::SimdFloatMult     14403082      2.50%     68.82% # Type of FU issued
system.switch_cpus1.iq.FU_type_0::SimdFloatMultAcc            0      0.00%     68.82% # Type of FU issued
system.switch_cpus1.iq.FU_type_0::SimdFloatSqrt            0      0.00%     68.82% # Type of FU issued
system.switch_cpus1.iq.FU_type_0::SimdReduceAdd            0      0.00%     68.82% # Type of FU issued
system.switch_cpus1.iq.FU_type_0::SimdReduceAlu            0      0.00%     68.82% # Type of FU issued
system.switch_cpus1.iq.FU_type_0::SimdReduceCmp            0      0.00%     68.82% # Type of FU issued
system.switch_cpus1.iq.FU_type_0::SimdFloatReduceAdd            0      0.00%     68.82% # Type of FU issued
system.switch_cpus1.iq.FU_type_0::SimdFloatReduceCmp            0      0.00%     68.82% # Type of FU issued
system.switch_cpus1.iq.FU_type_0::SimdAes            0      0.00%     68.82% # Type of FU issued
system.switch_cpus1.iq.FU_type_0::SimdAesMix            0      0.00%     68.82% # Type of FU issued
system.switch_cpus1.iq.FU_type_0::SimdSha1Hash            0      0.00%     68.82% # Type of FU issued
[...]
system.switch_cpus3.commit.numCommittedDist::0   1906583835     94.90%     94.90% # Number of insts commited each cycle
system.switch_cpus3.commit.numCommittedDist::1     36506784      1.82%     96.72% # Number of insts commited each cycle
system.switch_cpus3.commit.numCommittedDist::2      5136457      0.26%     96.97% # Number of insts commited each cycle
system.switch_cpus3.commit.numCommittedDist::3      8976050      0.45%     97.42% # Number of insts commited each cycle
system.switch_cpus3.commit.numCommittedDist::4      9962388      0.50%     97.92% # Number of insts commited each cycle
system.switch_cpus3.commit.numCommittedDist::5      3223902      0.16%     98.08% # Number of insts commited each cycle
system.switch_cpus3.commit.numCommittedDist::6      4141952      0.21%     98.28% # Number of insts commited each cycle
system.switch_cpus3.commit.numCommittedDist::7      3815102      0.19%     98.47% # Number of insts commited each cycle
system.switch_cpus3.commit.numCommittedDist::8     30697067      1.53%    100.00% # Number of insts commited each cycle
system.switch_cpus3.commit.numCommittedDist::overflows            0      0.00%    100.00% # Number of insts commited each cycle
system.switch_cpus3.commit.numCommittedDist::min_value            0                       # Number of insts commited each cycle
system.switch_cpus3.commit.numCommittedDist::max_value            8                       # Number of insts commited each cycle
system.switch_cpus3.commit.numCommittedDist::total   2009043537                       # Number of insts commited each cycle
system.switch_cpus3.commit.instsCommitted    239112756                       # Number of instructions committed
system.switch_cpus3.commit.opsCommitted     426810872                       # Number of ops (including micro ops) committed
system.switch_cpus3.commit.memRefs          103004021                       # Number of memory references committed
system.switch_cpus3.commit.loads             76730499                       # Number of loads committed
system.switch_cpus3.commit.amos                     0                       # Number of atomic instructions committed
system.switch_cpus3.commit.membars                 80                       # Number of memory barriers committed
system.switch_cpus3.commit.branches          22246533                       # Number of branches committed
system.switch_cpus3.commit.vector                   0                       # Number of committed Vector instructions.
system.switch_cpus3.commit.floating         276354881                       # Number of committed floating point instructions.
system.switch_cpus3.commit.integer          230058535                       # Number of committed integer instructions.
system.switch_cpus3.commit.functionCalls       741910                       # Number of function calls committed.
system.switch_cpus3.commit.committedInstType_0::No_OpClass       194718      0.05%      0.05% # Class of committed instruction
system.switch_cpus3.commit.committedInstType_0::IntAlu    177902653     41.68%     41.73% # Class of committed instruction
system.switch_cpus3.commit.committedInstType_0::IntMult            0      0.00%     41.73% # Class of committed instruction
system.switch_cpus3.commit.committedInstType_0::IntDiv            0      0.00%     41.73% # Class of committed instruction
system.switch_cpus3.commit.committedInstType_0::FloatAdd     69800420     16.35%     58.08% # Class of committed instruction
system.switch_cpus3.commit.committedInstType_0::FloatCmp            0      0.00%     58.08% # Class of committed instruction
system.switch_cpus3.commit.committedInstType_0::FloatCvt            0      0.00%     58.08% # Class of committed instruction
system.switch_cpus3.commit.committedInstType_0::FloatMult            0      0.00%     58.08% # Class of committed instruction
system.switch_cpus3.commit.committedInstType_0::FloatMultAcc            0      0.00%     58.08% # Class of committed instruction
system.switch_cpus3.commit.committedInstType_0::FloatDiv            0      0.00%     58.08% # Class of committed instruction
system.switch_cpus3.commit.committedInstType_0::FloatMisc            0      0.00%     58.08% # Class of committed instruction
system.switch_cpus3.commit.committedInstType_0::FloatSqrt            0      0.00%     58.08% # Class of committed instruction
system.switch_cpus3.commit.committedInstType_0::SimdAdd            0      0.00%     58.08% # Class of committed instruction
system.switch_cpus3.commit.committedInstType_0::SimdAddAcc            0      0.00%     58.08% # Class of committed instruction
system.switch_cpus3.commit.committedInstType_0::SimdAlu        38832      0.01%     58.09% # Class of committed instruction
system.switch_cpus3.commit.committedInstType_0::SimdCmp            0      0.00%     58.09% # Class of committed instruction
system.switch_cpus3.commit.committedInstType_0::SimdCvt            0      0.00%     58.09% # Class of committed instruction
system.switch_cpus3.commit.committedInstType_0::SimdMisc            0      0.00%     58.09% # Class of committed instruction
system.switch_cpus3.commit.committedInstType_0::SimdMult            0      0.00%     58.09% # Class of committed instruction
system.switch_cpus3.commit.committedInstType_0::SimdMultAcc            0      0.00%     58.09% # Class of committed instruction
system.switch_cpus3.commit.committedInstType_0::SimdShift            0      0.00%     58.09% # Class of committed instruction
system.switch_cpus3.commit.committedInstType_0::SimdShiftAcc            0      0.00%     58.09% # Class of committed instruction
system.switch_cpus3.commit.committedInstType_0::SimdDiv            0      0.00%     58.09% # Class of committed instruction
system.switch_cpus3.commit.committedInstType_0::SimdSqrt            0      0.00%     58.09% # Class of committed instruction
system.switch_cpus3.commit.committedInstType_0::SimdFloatAdd     27582114      6.46%     64.55% # Class of committed instruction
system.switch_cpus3.commit.committedInstType_0::SimdFloatAlu            0      0.00%     64.55% # Class of committed instruction
system.switch_cpus3.commit.committedInstType_0::SimdFloatCmp     28448701      6.67%     71.22% # Class of committed instruction
system.switch_cpus3.commit.committedInstType_0::SimdFloatCvt      5413731      1.27%     72.49% # Class of committed instruction
system.switch_cpus3.commit.committedInstType_0::SimdFloatDiv            0      0.00%     72.49% # Class of committed instruction
system.switch_cpus3.commit.committedInstType_0::SimdFloatMisc            0      0.00%     72.49% # Class of committed instruction
system.switch_cpus3.commit.committedInstType_0::SimdFloatMult     14425682      3.38%     75.87% # Class of committed instruction
system.switch_cpus3.commit.committedInstType_0::SimdFloatMultAcc            0      0.00%     75.87% # Class of committed instruction
system.switch_cpus3.commit.committedInstType_0::SimdFloatSqrt            0      0.00%     75.87% # Class of committed instruction
system.switch_cpus3.commit.committedInstType_0::SimdReduceAdd            0      0.00%     75.87% # Class of committed instruction
system.switch_cpus3.commit.committedInstType_0::SimdReduceAlu            0      0.00%     75.87% # Class of committed instruction
system.switch_cpus3.commit.committedInstType_0::SimdReduceCmp            0      0.00%     75.87% # Class of committed instruction
system.switch_cpus3.commit.committedInstType_0::SimdFloatReduceAdd            0      0.00%     75.87% # Class of committed instruction
system.switch_cpus3.commit.committedInstType_0::SimdFloatReduceCmp            0      0.00%     75.87% # Class of committed instruction
system.switch_cpus3.commit.committedInstType_0::SimdAes            0      0.00%     75.87% # Class of committed instruction
system.switch_cpus3.commit.committedInstType_0::SimdAesMix            0      0.00%     75.87% # Class of committed instruction
system.switch_cpus3.commit.committedInstType_0::SimdSha1Hash            0      0.00%     75.87% # Class of committed instruction
system.switch_cpus3.commit.committedInstType_0::SimdSha1Hash2            0      0.00%     75.87% # Class of committed instruction
system.switch_cpus3.commit.committedInstType_0::SimdSha256Hash            0      0.00%     75.87% # Class of committed instruction
system.switch_cpus3.commit.committedInstType_0::SimdSha256Hash2            0      0.00%     75.87% # Class of committed instruction
system.switch_cpus3.commit.committedInstType_0::SimdShaSigma2            0      0.00%     75.87% # Class of committed instruction
system.switch_cpus3.commit.committedInstType_0::SimdShaSigma3            0      0.00%     75.87% # Class of committed instruction
system.switch_cpus3.commit.committedInstType_0::SimdPredAlu            0      0.00%     75.87% # Class of committed instruction
system.switch_cpus3.commit.committedInstType_0::MemRead     15883424      3.72%     79.59% # Class of committed instruction
system.switch_cpus3.commit.committedInstType_0::MemWrite      7317168      1.71%     81.30% # Class of committed instruction
system.switch_cpus3.commit.committedInstType_0::FloatMemRead     60847075     14.26%     95.56% # Class of committed instruction
system.switch_cpus3.commit.committedInstType_0::FloatMemWrite     18956354      4.44%    100.00% # Class of committed instruction
system.switch_cpus3.commit.committedInstType_0::IprAccess            0      0.00%    100.00% # Class of committed instruction
system.switch_cpus3.commit.committedInstType_0::InstPrefetch            0      0.00%    100.00% # Class of committed instruction
system.switch_cpus3.commit.committedInstType_0::total    426810872                       # Class of committed instruction
system.switch_cpus3.commit.commitEligibleSamples     30697067                       # number cycles where commit BW limit reached
system.switch_cpus3.decode.idleCycles        15188685                       # Number of cycles decode is idle
system.switch_cpus3.decode.blockedCycles   1931536168                       # Number of cycles decode is blocked
system.switch_cpus3.decode.runCycles         49345936                       # Number of cycles decode is running
system.switch_cpus3.decode.unblockCycles     29602197                       # Number of cycles decode is unblocking
system.switch_cpus3.decode.squashCycles       1633332                       # Number of cycles decode is squashing
system.switch_cpus3.decode.branchResolved     16993225                       # Number of times decode resolved a  branch
system.switch_cpus3.decode.branchMispred          328                       # Number of times decode detected a branch misprediction
system.switch_cpus3.decode.decodedInsts     601541204                       # Number of instructions handled by decode
system.switch_cpus3.decode.squashedInsts         1919                       # Number of squashed instructions handled by decode
system.switch_cpus3.dtb.rdAccesses          119977168                       # TLB accesses on read requests
system.switch_cpus3.dtb.wrAccesses           63151426                       # TLB accesses on write requests
system.switch_cpus3.dtb.rdMisses              2711931                       # TLB misses on read requests
system.switch_cpus3.dtb.wrMisses               328607                       # TLB misses on write requests
system.switch_cpus3.dtb.walker.power_state.pwrStateResidencyTicks::UNDEFINED 18894274323489                       # Cumulative time (in ticks) in various power states
system.switch_cpus3.fetch.icacheStallCycles       824087                       # Number of cycles fetch is stalled on an Icache miss
system.switch_cpus3.fetch.insts             346918412                       # Number of instructions fetch has processed
system.switch_cpus3.fetch.branches           35164449                       # Number of branches that fetch encountered
system.switch_cpus3.fetch.predictedBranches     20759821                       # Number of branches that fetch has predicted taken
system.switch_cpus3.fetch.cycles           2024843937                       # Number of cycles fetch has run and was not squashing or blocked
system.switch_cpus3.fetch.squashCycles        3267288                       # Number of cycles fetch has spent squashing
system.switch_cpus3.fetch.miscStallCycles          123                       # Number of cycles fetch has spent waiting on interrupts,or bad addresses, or out of MSHRs
system.switch_cpus3.fetch.pendingTrapStallCycles         4530                       # Number of stall cycles due to pending traps
system.switch_cpus3.fetch.cacheLines         44786582                       # Number of cache lines fetched
system.switch_cpus3.fetch.icacheSquashes          197                       # Number of outstanding Icache misses that were squashed
system.switch_cpus3.fetch.nisnDist::samples   2027306321                       # Number of instructions fetched each cycle (Total)
system.switch_cpus3.fetch.nisnDist::mean     0.326917                       # Number of instructions fetched each cycle (Total)
system.switch_cpus3.fetch.nisnDist::stdev     1.474264                       # Number of instructions fetched each cycle (Total)
system.switch_cpus3.fetch.nisnDist::underflows            0      0.00%      0.00% # Number of instructions fetched each cycle (Total)
system.switch_cpus3.fetch.nisnDist::0      1916633716     94.54%     94.54% # Number of instructions fetched each cycle (Total)
system.switch_cpus3.fetch.nisnDist::1         4845020      0.24%     94.78% # Number of instructions fetched each cycle (Total)
system.switch_cpus3.fetch.nisnDist::2        12536540      0.62%     95.40% # Number of instructions fetched each cycle (Total)
system.switch_cpus3.fetch.nisnDist::3         7399168      0.36%     95.76% # Number of instructions fetched each cycle (Total)
system.switch_cpus3.fetch.nisnDist::4         6636157      0.33%     96.09% # Number of instructions fetched each cycle (Total)
system.switch_cpus3.fetch.nisnDist::5         9892352      0.49%     96.58% # Number of instructions fetched each cycle (Total)
system.switch_cpus3.fetch.nisnDist::6         6309076      0.31%     96.89% # Number of instructions fetched each cycle (Total)
system.switch_cpus3.fetch.nisnDist::7         7649775      0.38%     97.27% # Number of instructions fetched each cycle (Total)
system.switch_cpus3.fetch.nisnDist::8        55404517      2.73%    100.00% # Number of instructions fetched each cycle (Total)
system.switch_cpus3.fetch.nisnDist::overflows            0      0.00%    100.00% # Number of instructions fetched each cycle (Total)
system.switch_cpus3.fetch.nisnDist::min_value            0                       # Number of instructions fetched each cycle (Total)
system.switch_cpus3.fetch.nisnDist::max_value            8                       # Number of instructions fetched each cycle (Total)
system.switch_cpus3.fetch.nisnDist::total   2027306321                       # Number of instructions fetched each cycle (Total)
system.switch_cpus3.fetch.branchRate         0.017345                       # Number of branch fetches per cycle
system.switch_cpus3.fetch.rate               0.171118                       # Number of inst fetches per cycle
system.switch_cpus3.itb.rdAccesses                  0                       # TLB accesses on read requests
system.switch_cpus3.itb.wrAccesses           44786766                       # TLB accesses on write requests
system.switch_cpus3.itb.rdMisses                    0                       # TLB misses on read requests
system.switch_cpus3.itb.wrMisses                  214                       # TLB misses on write requests
system.switch_cpus3.itb.walker.power_state.pwrStateResidencyTicks::UNDEFINED 18894274323489                       # Cumulative time (in ticks) in various power states
system.switch_cpus3.lsq0.forwLoads             931043                       # Number of loads that had data forwarded from stores
system.switch_cpus3.lsq0.squashedLoads       35366842                       # Number of loads squashed
system.switch_cpus3.lsq0.ignoredResponses         1034                       # Number of memory responses ignored because the instruction is squashed
system.switch_cpus3.lsq0.memOrderViolation         6315                       # Number of memory ordering violations
system.switch_cpus3.lsq0.squashedStores      38323489                       # Number of stores squashed
system.switch_cpus3.lsq0.rescheduledLoads      7397172                       # Number of loads that were rescheduled
system.switch_cpus3.lsq0.blockedByCache         11234                       # Number of times an access to memory failed due to the cache being blocked
system.switch_cpus3.power_state.pwrStateResidencyTicks::OFF 675112079466                       # Cumulative time (in ticks) in various power states
system.switch_cpus3.rename.squashCycles       1633332                       # Number of cycles rename is squashing
system.switch_cpus3.rename.idleCycles        26449756                       # Number of cycles rename is idle
system.switch_cpus3.rename.blockCycles     1172731389                       # Number of cycles rename is blocking
system.switch_cpus3.rename.serializeStallCycles            0                       # count of cycles rename stalledfor serializing inst
system.switch_cpus3.rename.runCycles         65801841                       # Number of cycles rename is running
system.switch_cpus3.rename.unblockCycles    760690000                       # Number of cycles rename is unblocking
system.switch_cpus3.rename.renamedInsts     587956188                       # Number of instructions processed by rename
system.switch_cpus3.rename.ROBFullEvents     10401843                       # Number of times rename has blocked due to ROB full
system.switch_cpus3.rename.IQFullEvents     167115534                       # Number of times rename has blocked due to IQ full
system.switch_cpus3.rename.LQFullEvents     334944875                       # Number of times rename has blocked due to LQ full
system.switch_cpus3.rename.SQFullEvents     387049664                       # Number of times rename has blocked due to SQ full
system.switch_cpus3.rename.renamedOperands    600698056                       # Number of destination operands rename has renamed
system.switch_cpus3.rename.lookups         1404579175                       # Number of register rename lookups that rename has made
system.switch_cpus3.rename.intLookups       582621289                       # Number of integer rename lookups
system.switch_cpus3.rename.fpLookups        371112003                       # Number of floating rename lookups
system.switch_cpus3.rename.committedMaps    451601523                       # Number of HB maps that are committed
system.switch_cpus3.rename.undoneMaps       149096486                       # Number of HB maps that are undone due to squashing
system.switch_cpus3.rename.serializing              0                       # count of serializing insts renamed
system.switch_cpus3.rename.tempSerializing            0                       # count of temporary serializing insts renamed
system.switch_cpus3.rename.skidInsts        162958274                       # count of insts added to the skid buffer
system.switch_cpus3.rob.reads              2524144403                       # The number of ROB reads
system.switch_cpus3.rob.writes             1137465594                       # The number of ROB writes
system.switch_cpus3.thread0.numInsts        239112756                       # Number of Instructions committed
system.switch_cpus3.thread0.numOps          426810872                       # Number of Ops committed
system.switch_cpus3.thread0.numMemRefs              0                       # Number of Memory References
system.voltage_domain.voltage                       1                       # Voltage in Volts

---------- End Simulation Statistics   ----------
