Command line:
./runscript_pride.sh mix21 RFM2.BR2.4C 4 2017 --rh_defense --rh_mitigation=RFM --rh_rfm_per_trefi=2 --rh_rfm_blast_radius=2 --rh_rfm_maxacts_per_trefi=79
Global frequency set at 1000000000000 ticks per second
RFM details - rfm_act_threshold: 39, blast_radius: 2, delay_per_rfm: 175000 ps. sample_rate: 0.025000
RH Defense config: RFM, Bus Delay: 0, rfms_per_trefi: 2, rfm_act_threshold: 39, blast_radius: 2,rfm_delay_per_act: 45000 ps.
DRAM config: RowsPerBank: 65536, BanksPerRank: 32, RanksPerChannel: 1
warn: Sockets disabled, not accepting gdb connections
warn: CoherentXBar system.cpu0.mmucache.mmubus has no snooping ports attached!
warn: CoherentXBar system.cpu1.mmucache.mmubus has no snooping ports attached!
warn: CoherentXBar system.cpu2.mmucache.mmubus has no snooping ports attached!
warn: CoherentXBar system.cpu3.mmucache.mmubus has no snooping ports attached!
warn: Checkpoints for file descriptors currently do not work.
warn: Checkpoints for file descriptors currently do not work.
warn: Checkpoints for file descriptors currently do not work.
warn: Checkpoints for file descriptors currently do not work.
gem5 Simulator System.  http://gem5.org
gem5 is copyrighted software; use the --copyright option for details.

gem5 version 20.1.0.5
gem5 compiled Jul 12 2024 12:42:38
gem5 started Jul 22 2024 15:54:36
gem5 executing on a07dda8b130c, pid 88702
command line: /home/user/PrIDE/performance/gem5/build/X86/gem5.opt --outdir=/home/user/PrIDE/performance/gem5/stats/pride_multiprogram_16GBmem_250Mn.SPEC2017.C4/RFM2.BR2.4C/mix21 /home/user/PrIDE/performance/gem5/configs/example/se_rq_spec_config_multicore.py --redirects /lib64=/home/utils/gcc-6.2.0/lib64 --benchmark=mix21 --benchmark_stdout=/home/user/PrIDE/performance/gem5/stats/pride_multiprogram_16GBmem_250Mn.SPEC2017.C4/RFM2.BR2.4C/mix21/mix21.out --benchmark_stderr=/home/user/PrIDE/performance/gem5/stats/pride_multiprogram_16GBmem_250Mn.SPEC2017.C4/RFM2.BR2.4C/mix21/mix21.err --spec-version=2017 --rh_defense --rh_mitigation=RFM --rh_rfm_per_trefi=2 --rh_rfm_blast_radius=2 --rh_rfm_maxacts_per_trefi=79 --num-cpus=4 --mem-size=16GB --mem-type=DDR5_2400_32x4 --mem-ranks=1 --checkpoint-dir=/home/user/PrIDE/performance/gem5/cpts/multiprogram_16GBmem_25Bn.SPEC2017.C4/mix21-1-ref-x86 --checkpoint-restore=25000000000 --at-instruction --cpu-type DerivO3CPU --caches --l2cache --l1d_size=32kB --l1i_size=32kB --l2_size=256kB --l1d_assoc=8 --l1i_assoc=8 --l2_assoc=16 --maxinsts=250000000 --prog-interval=300Hz

info: Standard input is not a terminal, disabling listeners.
Benchmark- 0   povray
Selected benchmark
--> povray
CMD: ['/opt/spec2017/benchspec/CPU/511.povray_r/run/run_base_refrate_gem5_se-m64.0000/povray_r_base.gem5_se-m64', '/opt/spec2017/benchspec/CPU/511.povray_r/run/run_base_refrate_gem5_se-m64.0000/SPEC-benchmark-ref.ini']
CWD: /opt/spec2017/benchspec/CPU/511.povray_r/run/run_base_refrate_gem5_se-m64.0000/
Process stdout file: /home/user/PrIDE/performance/gem5/stats/pride_multiprogram_16GBmem_250Mn.SPEC2017.C4/RFM2.BR2.4C/mix21/mix21.out_0
Process stderr file: /home/user/PrIDE/performance/gem5/stats/pride_multiprogram_16GBmem_250Mn.SPEC2017.C4/RFM2.BR2.4C/mix21/mix21.err_0
Benchmark- 1   namd
Selected benchmark
--> namd
CMD: ['/opt/spec2017/benchspec/CPU/508.namd_r/run/run_base_refrate_gem5_se-m64.0000/namd_r_base.gem5_se-m64', '--input', '/opt/spec2017/benchspec/CPU/508.namd_r/run/run_base_refrate_gem5_se-m64.0000/apoa1.input', '--output', '/opt/spec2017/benchspec/CPU/508.namd_r/run/run_base_refrate_gem5_se-m64.0000/apoa1.ref.output', '--iterations', '65']
CWD: /opt/spec2017/benchspec/CPU/508.namd_r/run/run_base_refrate_gem5_se-m64.0000/
Process stdout file: /home/user/PrIDE/performance/gem5/stats/pride_multiprogram_16GBmem_250Mn.SPEC2017.C4/RFM2.BR2.4C/mix21/mix21.out_1
Process stderr file: /home/user/PrIDE/performance/gem5/stats/pride_multiprogram_16GBmem_250Mn.SPEC2017.C4/RFM2.BR2.4C/mix21/mix21.err_1
Benchmark- 2   nab
Selected benchmark
--> nab
CMD: ['/opt/spec2017/benchspec/CPU/544.nab_r/run/run_base_refrate_gem5_se-m64.0000/nab_r_base.gem5_se-m64', '1am0', '1122214447', '122']
CWD: /opt/spec2017/benchspec/CPU/544.nab_r/run/run_base_refrate_gem5_se-m64.0000/
Process stdout file: /home/user/PrIDE/performance/gem5/stats/pride_multiprogram_16GBmem_250Mn.SPEC2017.C4/RFM2.BR2.4C/mix21/mix21.out_2
Process stderr file: /home/user/PrIDE/performance/gem5/stats/pride_multiprogram_16GBmem_250Mn.SPEC2017.C4/RFM2.BR2.4C/mix21/mix21.err_2
Benchmark- 3   roms
Selected benchmark
--> roms
CMD: ['/opt/spec2017/benchspec/CPU/554.roms_r/run/run_base_refrate_gem5_se-m64.0000/roms_r_base.gem5_se-m64']
CWD: /opt/spec2017/benchspec/CPU/554.roms_r/run/run_base_refrate_gem5_se-m64.0000/
Process stdout file: /home/user/PrIDE/performance/gem5/stats/pride_multiprogram_16GBmem_250Mn.SPEC2017.C4/RFM2.BR2.4C/mix21/mix21.out_3
Process stderr file: /home/user/PrIDE/performance/gem5/stats/pride_multiprogram_16GBmem_250Mn.SPEC2017.C4/RFM2.BR2.4C/mix21/mix21.err_3
Workload-0: 
['/opt/spec2017/benchspec/CPU/511.povray_r/run/run_base_refrate_gem5_se-m64.0000/povray_r_base.gem5_se-m64', '/opt/spec2017/benchspec/CPU/511.povray_r/run/run_base_refrate_gem5_se-m64.0000/SPEC-benchmark-ref.ini']
Workload-1: 
['/opt/spec2017/benchspec/CPU/508.namd_r/run/run_base_refrate_gem5_se-m64.0000/namd_r_base.gem5_se-m64', '--input', '/opt/spec2017/benchspec/CPU/508.namd_r/run/run_base_refrate_gem5_se-m64.0000/apoa1.input', '--output', '/opt/spec2017/benchspec/CPU/508.namd_r/run/run_base_refrate_gem5_se-m64.0000/apoa1.ref.output', '--iterations', '65']
Workload-2: 
['/opt/spec2017/benchspec/CPU/544.nab_r/run/run_base_refrate_gem5_se-m64.0000/nab_r_base.gem5_se-m64', '1am0', '1122214447', '122']
Workload-3: 
['/opt/spec2017/benchspec/CPU/554.roms_r/run/run_base_refrate_gem5_se-m64.0000/roms_r_base.gem5_se-m64']
defense_enable:  True  detector:  MG  mitigation:  RFM  threshold:  800
mg_entries:  1700
rfm_maxacts_per_trefi:  79 rfm_per_trefi:  2 rfm_blast_radius:  2
Switch at curTick count:10000
warn: membus.master is deprecated. `master` is now called `mem_side_ports`
warn: No dot file generated. Please install pydot to generate the dot file and pdf.
info: Entering event queue @ 13945158483732.  Starting simulation...
info: Entering event queue @ 13945158493732.  Starting simulation...
warn: PowerState: Already in the requested power state, request ignored
Switched CPUS @ tick 13945158493732
switching cpus
**** REAL SIMULATION ****
info: Entering event queue @ 13945158494055.  Starting simulation...
13948491817065: Event_285: system.switch_cpus3 progress event, total committed:15337014, progress insts committed: 15337014, IPC: 01.53217
13948491817065: Event_284: system.switch_cpus2 progress event, total committed:41172545, progress insts committed: 41172545, IPC: 04.11314
13948491817065: Event_283: system.switch_cpus1 progress event, total committed:33586174, progress insts committed: 33586174, IPC: 03.35526
13948491817065: Event_282: system.switch_cpus0 progress event, total committed:44772427, progress insts committed: 44772427, IPC: 04.47277
13951825150398: Event_282: system.switch_cpus0 progress event, total committed:90664037, progress insts committed: 45891610, IPC: 04.58457
13951825150398: Event_283: system.switch_cpus1 progress event, total committed:67248101, progress insts committed: 33661927, IPC: 03.36283
13951825150398: Event_284: system.switch_cpus2 progress event, total committed:85023822, progress insts committed: 43851277, IPC: 04.38074
13951825150398: Event_285: system.switch_cpus3 progress event, total committed:31653285, progress insts committed: 16316271, IPC: 00001.63
13955158483731: Event_285: system.switch_cpus3 progress event, total committed:42522073, progress insts committed: 10868788, IPC: 01.08579
13955158483731: Event_284: system.switch_cpus2 progress event, total committed:126968452, progress insts committed: 41944630, IPC: 04.19027
13955158483731: Event_283: system.switch_cpus1 progress event, total committed:99974372, progress insts committed: 32726271, IPC: 03.26935
13955158483731: Event_282: system.switch_cpus0 progress event, total committed:134658307, progress insts committed: 43994270, IPC: 04.39503
13958491817064: Event_282: system.switch_cpus0 progress event, total committed:179696585, progress insts committed: 45038278, IPC: 04.49932
13958491817064: Event_283: system.switch_cpus1 progress event, total committed:132813201, progress insts committed: 32838829, IPC: 003.2806
13958491817064: Event_284: system.switch_cpus2 progress event, total committed:169709499, progress insts committed: 42741047, IPC: 04.26983
13958491817064: Event_285: system.switch_cpus3 progress event, total committed:50974055, progress insts committed: 8451982, IPC: 0.844353
13961825150397: Event_285: system.switch_cpus3 progress event, total committed:60067683, progress insts committed: 9093628, IPC: 0.908453
13961825150397: Event_284: system.switch_cpus2 progress event, total committed:214277357, progress insts committed: 44567858, IPC: 04.45233
13961825150397: Event_283: system.switch_cpus1 progress event, total committed:166955822, progress insts committed: 34142621, IPC: 03.41085
13961825150397: Event_282: system.switch_cpus0 progress event, total committed:224817776, progress insts committed: 45121191, IPC: 04.50761
13965158483730: Event_282: system.switch_cpus0 progress event, total committed:269687376, progress insts committed: 44869600, IPC: 04.48247
13965158483730: Event_283: system.switch_cpus1 progress event, total committed:200628473, progress insts committed: 33672651, IPC: 003.3639
13965158483730: Event_284: system.switch_cpus2 progress event, total committed:258020875, progress insts committed: 43743518, IPC: 04.36998
13965158483730: Event_285: system.switch_cpus3 progress event, total committed:67391582, progress insts committed: 7323899, IPC: 0.731658
13968491817063: Event_285: system.switch_cpus3 progress event, total committed:72394146, progress insts committed: 5002564, IPC: 0.499756
13968491817063: Event_284: system.switch_cpus2 progress event, total committed:299476297, progress insts committed: 41455422, IPC: 004.1414
13968491817063: Event_283: system.switch_cpus1 progress event, total committed:232769443, progress insts committed: 32140970, IPC: 03.21088
13968491817063: Event_282: system.switch_cpus0 progress event, total committed:314889415, progress insts committed: 45202039, IPC: 04.51568
13971825150396: Event_282: system.switch_cpus0 progress event, total committed:360124677, progress insts committed: 45235262, IPC: 0004.519
13971825150396: Event_283: system.switch_cpus1 progress event, total committed:264282460, progress insts committed: 31513017, IPC: 03.14815
13971825150396: Event_284: system.switch_cpus2 progress event, total committed:341163346, progress insts committed: 41687049, IPC: 04.16454
13971825150396: Event_285: system.switch_cpus3 progress event, total committed:77306623, progress insts committed: 4912477, IPC: 0.490756
13975158483729: Event_285: system.switch_cpus3 progress event, total committed:86842539, progress insts committed: 9535916, IPC: 0.952638
13975158483729: Event_284: system.switch_cpus2 progress event, total committed:384042030, progress insts committed: 42878684, IPC: 04.28358
13975158483729: Event_283: system.switch_cpus1 progress event, total committed:297103260, progress insts committed: 32820800, IPC: 003.2788
13975158483729: Event_282: system.switch_cpus0 progress event, total committed:405363331, progress insts committed: 45238654, IPC: 04.51934
Exiting @ tick 13975162466382 because a thread reached the max instruction count
