Command line:
./runscript_pride.sh exchange2 AE.BASELINE.1C 1 2017
Global frequency set at 1000000000000 ticks per second
DRAM config: RowsPerBank: 65536, BanksPerRank: 32, RanksPerChannel: 1
warn: Sockets disabled, not accepting gdb connections
warn: CoherentXBar system.cpu.mmucache.mmubus has no snooping ports attached!
warn: Checkpoints for file descriptors currently do not work.
gem5 Simulator System.  http://gem5.org
gem5 is copyrighted software; use the --copyright option for details.

gem5 version 20.1.0.5
gem5 compiled Jul 12 2024 12:42:38
gem5 started Jul 31 2024 03:21:18
gem5 executing on a07dda8b130c, pid 225607
command line: /home/user/PrIDE/performance/gem5/build/X86/gem5.opt --outdir=/home/user/PrIDE/performance/gem5/stats/pride_multiprogram_16GBmem_250Mn.SPEC2017.C1/AE.BASELINE.1C/exchange2 /home/user/PrIDE/performance/gem5/configs/example/se_rq_spec_config_multicore.py --redirects /lib64=/home/utils/gcc-6.2.0/lib64 --benchmark=exchange2 --benchmark_stdout=/home/user/PrIDE/performance/gem5/stats/pride_multiprogram_16GBmem_250Mn.SPEC2017.C1/AE.BASELINE.1C/exchange2/exchange2.out --benchmark_stderr=/home/user/PrIDE/performance/gem5/stats/pride_multiprogram_16GBmem_250Mn.SPEC2017.C1/AE.BASELINE.1C/exchange2/exchange2.err --spec-version=2017 --num-cpus=1 --mem-size=16GB --mem-type=DDR5_2400_32x4 --mem-ranks=1 --mem-channels=1 --checkpoint-dir=/home/user/PrIDE/performance/gem5/cpts-DDR5/multiprogram_16GBmem_25Bn.SPEC2017.C1/exchange2-1-ref-x86 --checkpoint-restore=25000000000 --at-instruction --cpu-type DerivO3CPU --caches --l2cache --l1d_size=32kB --l1i_size=32kB --l2_size=256kB --l3_size=4MB --l1d_assoc=8 --l1i_assoc=8 --l2_assoc=16 --l3_assoc=16 --cpu-clock=3GHz --sys-clock=3GHz --maxinsts=250000000 --prog-interval=300Hz

info: Standard input is not a terminal, disabling listeners.
Benchmark- 0   exchange2
Selected benchmark
--> exchange2
CMD: ['/opt/spec2017/benchspec/CPU/548.exchange2_r/run/run_base_refrate_gem5_se-m64.0000/exchange2_r_base.gem5_se-m64', '6']
CWD: /opt/spec2017/benchspec/CPU/548.exchange2_r/run/run_base_refrate_gem5_se-m64.0000/
Process stdout file: /home/user/PrIDE/performance/gem5/stats/pride_multiprogram_16GBmem_250Mn.SPEC2017.C1/AE.BASELINE.1C/exchange2/exchange2.out_0
Process stderr file: /home/user/PrIDE/performance/gem5/stats/pride_multiprogram_16GBmem_250Mn.SPEC2017.C1/AE.BASELINE.1C/exchange2/exchange2.err_0
Workload-0: 
['/opt/spec2017/benchspec/CPU/548.exchange2_r/run/run_base_refrate_gem5_se-m64.0000/exchange2_r_base.gem5_se-m64', '6']
defense_enable:  False  detector:  MG  mitigation:  RRS  threshold:  800
mg_entries:  1700
rrs_tuples:  3400 rrs_swap_delay:  2740ns rit_acc_delay:  1.25ns
Switch at curTick count:10000
warn: membus.master is deprecated. `master` is now called `mem_side_ports`
warn: No dot file generated. Please install pydot to generate the dot file and pdf.
info: Entering event queue @ 19742845048677.  Starting simulation...
info: Entering event queue @ 19742845058677.  Starting simulation...
warn: PowerState: Already in the requested power state, request ignored
Switched CPUS @ tick 19742845058677
switching cpus
**** REAL SIMULATION ****
info: Entering event queue @ 19742845059333.  Starting simulation...
19746178382010: Event_93: system.switch_cpus progress event, total committed:33227641, progress insts committed: 33227641, IPC: 03.31944
19749511715343: Event_93: system.switch_cpus progress event, total committed:66379072, progress insts committed: 33151431, IPC: 03.31183
19752845048676: Event_93: system.switch_cpus progress event, total committed:100572846, progress insts committed: 34193774, IPC: 03.41596
19756178382009: Event_93: system.switch_cpus progress event, total committed:136557814, progress insts committed: 35984968, IPC: 003.5949
19759511715342: Event_93: system.switch_cpus progress event, total committed:173303531, progress insts committed: 36745717, IPC: 003.6709
19762845048675: Event_93: system.switch_cpus progress event, total committed:208233306, progress insts committed: 34929775, IPC: 03.48948
19766178382008: Event_93: system.switch_cpus progress event, total committed:243271819, progress insts committed: 35038513, IPC: 03.50035
19769511715341: Event_93: system.switch_cpus progress event, total committed:278254409, progress insts committed: 34982590, IPC: 03.49476
19772845048674: Event_93: system.switch_cpus progress event, total committed:312146201, progress insts committed: 33891792, IPC: 03.38579
19776178382007: Event_93: system.switch_cpus progress event, total committed:346497145, progress insts committed: 34350944, IPC: 03.43166
19779511715340: Event_93: system.switch_cpus progress event, total committed:380145779, progress insts committed: 33648634, IPC: 003.3615
19782845048673: Event_93: system.switch_cpus progress event, total committed:414904863, progress insts committed: 34759084, IPC: 03.47243
19786178382006: Event_93: system.switch_cpus progress event, total committed:447966274, progress insts committed: 33061411, IPC: 03.30283
19789511715339: Event_93: system.switch_cpus progress event, total committed:481426059, progress insts committed: 33459785, IPC: 03.34263
Exiting @ tick 19790307191358 because a thread reached the max instruction count
