
---------- Begin Simulation Statistics ----------
final_tick                               19790306150400                       # Number of ticks from beginning of simulation (restored from checkpoints and never reset)
host_inst_rate                                 113110                       # Simulator instruction rate (inst/s)
host_mem_usage                               16968284                       # Number of bytes of host memory used
host_op_rate                                   221378                       # Simulator op (including micro ops) rate (op/s)
host_seconds                                  2210.24                       # Real time elapsed on the host
host_tick_rate                               21473324                       # Simulator tick rate (ticks/s)
sim_freq                                 1000000000000                       # Frequency of simulated ticks
sim_insts                                   250000018                       # Number of instructions simulated
sim_ops                                     489297917                       # Number of ops (including micro ops) simulated
sim_seconds                                  0.047461                       # Number of seconds simulated
sim_ticks                                 47461095396                       # Number of ticks simulated
system.cpu.Branches                                 1                       # Number of branches fetched
system.cpu.committedInsts                          15                       # Number of instructions committed
system.cpu.committedOps                            20                       # Number of ops (including micro ops) committed
system.cpu.idle_fraction                            0                       # Percentage of idle cycles
system.cpu.l2bus.snoop_filter.hit_multi_requests            2                       # Number of requests hitting in the snoop filter with multiple (>1) holders of the requested data.
system.cpu.l2bus.snoop_filter.hit_multi_snoops            0                       # Number of snoops hitting in the snoop filter with multiple (>1) holders of the requested data.
system.cpu.l2bus.snoop_filter.hit_single_requests         6274                       # Number of requests hitting in the snoop filter with a single holder of the requested data.
system.cpu.l2bus.snoop_filter.hit_single_snoops            0                       # Number of snoops hitting in the snoop filter with a single holder of the requested data.
system.cpu.l2bus.snoop_filter.tot_requests        13359                       # Total number of requests made to the snoop filter.
system.cpu.l2bus.snoop_filter.tot_snoops            0                       # Total number of snoops made to the snoop filter.
system.cpu.mmucache.mmubus.snoop_filter.hit_multi_requests            0                       # Number of requests hitting in the snoop filter with multiple (>1) holders of the requested data.
system.cpu.mmucache.mmubus.snoop_filter.hit_multi_snoops            0                       # Number of snoops hitting in the snoop filter with multiple (>1) holders of the requested data.
system.cpu.mmucache.mmubus.snoop_filter.hit_single_requests            0                       # Number of requests hitting in the snoop filter with a single holder of the requested data.
system.cpu.mmucache.mmubus.snoop_filter.hit_single_snoops            0                       # Number of snoops hitting in the snoop filter with a single holder of the requested data.
system.cpu.mmucache.mmubus.snoop_filter.tot_requests            0                       # Total number of requests made to the snoop filter.
system.cpu.mmucache.mmubus.snoop_filter.tot_snoops            0                       # Total number of snoops made to the snoop filter.
system.cpu.not_idle_fraction                        1                       # Percentage of non-idle cycles
system.cpu.numCycles                               30                       # number of cpu cycles simulated
system.cpu.numWorkItemsCompleted                    0                       # number of work items this cpu completed
system.cpu.numWorkItemsStarted                      0                       # number of work items this cpu started
system.cpu.num_busy_cycles                         30                       # Number of busy cycles
system.cpu.num_cc_register_reads                    5                       # number of times the CC registers were read
system.cpu.num_cc_register_writes                   2                       # number of times the CC registers were written
system.cpu.num_conditional_control_insts            1                       # number of instructions that are conditional controls
system.cpu.num_fp_alu_accesses                      0                       # Number of float alu accesses
system.cpu.num_fp_insts                             0                       # number of float instructions
system.cpu.num_fp_register_reads                    0                       # number of times the floating registers were read
system.cpu.num_fp_register_writes                   0                       # number of times the floating registers were written
system.cpu.num_func_calls                           0                       # number of times a function call or return occured
system.cpu.num_idle_cycles                          0                       # Number of idle cycles
system.cpu.num_int_alu_accesses                    20                       # Number of integer alu accesses
system.cpu.num_int_insts                           20                       # number of integer instructions
system.cpu.num_int_register_reads                  49                       # number of times the integer registers were read
system.cpu.num_int_register_writes                 15                       # number of times the integer registers were written
system.cpu.num_load_insts                           6                       # Number of load instructions
system.cpu.num_mem_refs                            10                       # number of memory refs
system.cpu.num_store_insts                          4                       # Number of store instructions
system.cpu.num_vec_alu_accesses                     0                       # Number of vector alu accesses
system.cpu.num_vec_insts                            0                       # number of vector instructions
system.cpu.num_vec_register_reads                   0                       # number of times the vector registers were read
system.cpu.num_vec_register_writes                  0                       # number of times the vector registers were written
system.cpu.op_class::No_OpClass                     0      0.00%      0.00% # Class of executed instruction
system.cpu.op_class::IntAlu                        10     50.00%     50.00% # Class of executed instruction
system.cpu.op_class::IntMult                        0      0.00%     50.00% # Class of executed instruction
system.cpu.op_class::IntDiv                         0      0.00%     50.00% # Class of executed instruction
system.cpu.op_class::FloatAdd                       0      0.00%     50.00% # Class of executed instruction
system.cpu.op_class::FloatCmp                       0      0.00%     50.00% # Class of executed instruction
system.cpu.op_class::FloatCvt                       0      0.00%     50.00% # Class of executed instruction
system.cpu.op_class::FloatMult                      0      0.00%     50.00% # Class of executed instruction
system.cpu.op_class::FloatMultAcc                   0      0.00%     50.00% # Class of executed instruction
system.cpu.op_class::FloatDiv                       0      0.00%     50.00% # Class of executed instruction
system.cpu.op_class::FloatMisc                      0      0.00%     50.00% # Class of executed instruction
system.cpu.op_class::FloatSqrt                      0      0.00%     50.00% # Class of executed instruction
system.cpu.op_class::SimdAdd                        0      0.00%     50.00% # Class of executed instruction
system.cpu.op_class::SimdAddAcc                     0      0.00%     50.00% # Class of executed instruction
system.cpu.op_class::SimdAlu                        0      0.00%     50.00% # Class of executed instruction
system.cpu.op_class::SimdCmp                        0      0.00%     50.00% # Class of executed instruction
system.cpu.op_class::SimdCvt                        0      0.00%     50.00% # Class of executed instruction
system.cpu.op_class::SimdMisc                       0      0.00%     50.00% # Class of executed instruction
system.cpu.op_class::SimdMult                       0      0.00%     50.00% # Class of executed instruction
system.cpu.op_class::SimdMultAcc                    0      0.00%     50.00% # Class of executed instruction
system.cpu.op_class::SimdShift                      0      0.00%     50.00% # Class of executed instruction
system.cpu.op_class::SimdShiftAcc                   0      0.00%     50.00% # Class of executed instruction
system.cpu.op_class::SimdDiv                        0      0.00%     50.00% # Class of executed instruction
system.cpu.op_class::SimdSqrt                       0      0.00%     50.00% # Class of executed instruction
system.cpu.op_class::SimdFloatAdd                   0      0.00%     50.00% # Class of executed instruction
system.cpu.op_class::SimdFloatAlu                   0      0.00%     50.00% # Class of executed instruction
system.cpu.op_class::SimdFloatCmp                   0      0.00%     50.00% # Class of executed instruction
system.cpu.op_class::SimdFloatCvt                   0      0.00%     50.00% # Class of executed instruction
system.cpu.op_class::SimdFloatDiv                   0      0.00%     50.00% # Class of executed instruction
system.cpu.op_class::SimdFloatMisc                  0      0.00%     50.00% # Class of executed instruction
system.cpu.op_class::SimdFloatMult                  0      0.00%     50.00% # Class of executed instruction
system.cpu.op_class::SimdFloatMultAcc               0      0.00%     50.00% # Class of executed instruction
system.cpu.op_class::SimdFloatSqrt                  0      0.00%     50.00% # Class of executed instruction
system.cpu.op_class::SimdReduceAdd                  0      0.00%     50.00% # Class of executed instruction
system.cpu.op_class::SimdReduceAlu                  0      0.00%     50.00% # Class of executed instruction
system.cpu.op_class::SimdReduceCmp                  0      0.00%     50.00% # Class of executed instruction
system.cpu.op_class::SimdFloatReduceAdd             0      0.00%     50.00% # Class of executed instruction
system.cpu.op_class::SimdFloatReduceCmp             0      0.00%     50.00% # Class of executed instruction
system.cpu.op_class::SimdAes                        0      0.00%     50.00% # Class of executed instruction
system.cpu.op_class::SimdAesMix                     0      0.00%     50.00% # Class of executed instruction
system.cpu.op_class::SimdSha1Hash                   0      0.00%     50.00% # Class of executed instruction
system.cpu.op_class::SimdSha1Hash2                  0      0.00%     50.00% # Class of executed instruction
system.cpu.op_class::SimdSha256Hash                 0      0.00%     50.00% # Class of executed instruction
system.cpu.op_class::SimdSha256Hash2                0      0.00%     50.00% # Class of executed instruction
system.cpu.op_class::SimdShaSigma2                  0      0.00%     50.00% # Class of executed instruction
system.cpu.op_class::SimdShaSigma3                  0      0.00%     50.00% # Class of executed instruction
system.cpu.op_class::SimdPredAlu                    0      0.00%     50.00% # Class of executed instruction
system.cpu.op_class::MemRead                        6     30.00%     80.00% # Class of executed instruction
system.cpu.op_class::MemWrite                       4     20.00%    100.00% # Class of executed instruction
system.cpu.op_class::FloatMemRead                   0      0.00%    100.00% # Class of executed instruction
system.cpu.op_class::FloatMemWrite                  0      0.00%    100.00% # Class of executed instruction
system.cpu.op_class::IprAccess                      0      0.00%    100.00% # Class of executed instruction
system.cpu.op_class::InstPrefetch                   0      0.00%    100.00% # Class of executed instruction
system.cpu.op_class::total                         20                       # Class of executed instruction
system.cpu.workload.numSyscalls                     0                       # Number of system calls
system.l3bus.snoop_filter.hit_multi_requests            0                       # Number of requests hitting in the snoop filter with multiple (>1) holders of the requested data.
system.l3bus.snoop_filter.hit_multi_snoops            0                       # Number of snoops hitting in the snoop filter with multiple (>1) holders of the requested data.
system.l3bus.snoop_filter.hit_single_requests            0                       # Number of requests hitting in the snoop filter with a single holder of the requested data.
system.l3bus.snoop_filter.hit_single_snoops            0                       # Number of snoops hitting in the snoop filter with a single holder of the requested data.
system.l3bus.snoop_filter.tot_requests           1693                       # Total number of requests made to the snoop filter.
system.l3bus.snoop_filter.tot_snoops                0                       # Total number of snoops made to the snoop filter.
system.membus.snoop_filter.hit_multi_requests            0                       # Number of requests hitting in the snoop filter with multiple (>1) holders of the requested data.
system.membus.snoop_filter.hit_multi_snoops            0                       # Number of snoops hitting in the snoop filter with multiple (>1) holders of the requested data.
system.membus.snoop_filter.hit_single_requests            0                       # Number of requests hitting in the snoop filter with a single holder of the requested data.
system.membus.snoop_filter.hit_single_snoops            0                       # Number of snoops hitting in the snoop filter with a single holder of the requested data.
system.membus.snoop_filter.tot_requests          1693                       # Total number of requests made to the snoop filter.
system.membus.snoop_filter.tot_snoops               0                       # Total number of snoops made to the snoop filter.
system.switch_cpus.cc_regfile_reads         236351821                       # number of cc regfile reads
system.switch_cpus.cc_regfile_writes        244403353                       # number of cc regfile writes
system.switch_cpus.committedInsts           250000003                       # Number of Instructions Simulated
system.switch_cpus.committedOps             489297897                       # Number of Ops (including micro ops) Simulated
system.switch_cpus.cpi                       0.570103                       # CPI: Cycles Per Instruction
system.switch_cpus.cpi_total                 0.570103                       # CPI: Total CPI of All Threads
system.switch_cpus.fp_regfile_reads              6330                       # number of floating regfile reads
system.switch_cpus.fp_regfile_writes             6395                       # number of floating regfile writes
system.switch_cpus.idleCycles                  200711                       # Total number of cycles that the CPU has spent unscheduled due to idling
system.switch_cpus.iew.branchMispredicts      3090247                       # Number of branch mispredicts detected at execute
system.switch_cpus.iew.exec_branches         46285129                       # Number of branches executed
system.switch_cpus.iew.exec_nop                     0                       # number of nop insts executed
system.switch_cpus.iew.exec_rate             4.129479                       # Inst execution rate
system.switch_cpus.iew.exec_refs            174194544                       # number of memory reference insts executed
system.switch_cpus.iew.exec_stores           47231499                       # Number of stores executed
system.switch_cpus.iew.exec_swp                     0                       # number of swp insts executed
system.switch_cpus.iew.iewBlockCycles        18219115                       # Number of cycles IEW is blocking
system.switch_cpus.iew.iewDispLoadInsts     138994473                       # Number of dispatched load instructions
system.switch_cpus.iew.iewDispNonSpecInsts            0                       # Number of dispatched non-speculative instructions
system.switch_cpus.iew.iewDispSquashedInsts        13304                       # Number of squashed instructions skipped by dispatch
system.switch_cpus.iew.iewDispStoreInsts     55588684                       # Number of dispatched store instructions
system.switch_cpus.iew.iewDispatchedInsts    644101944                       # Number of instructions dispatched to IQ
system.switch_cpus.iew.iewExecLoadInsts     126963045                       # Number of load instructions executed
system.switch_cpus.iew.iewExecSquashedInsts      8552989                       # Number of squashed instructions skipped in execute
system.switch_cpus.iew.iewExecutedInsts     588557175                       # Number of executed instructions
system.switch_cpus.iew.iewIQFullEvents             24                       # Number of times the IQ has become full, causing a stall
system.switch_cpus.iew.iewIdleCycles                0                       # Number of cycles IEW is idle
system.switch_cpus.iew.iewLSQFullEvents          3012                       # Number of times the LSQ has become full, causing a stall
system.switch_cpus.iew.iewSquashCycles        2516782                       # Number of cycles IEW is squashing
system.switch_cpus.iew.iewUnblockCycles          3045                       # Number of cycles IEW is unblocking
system.switch_cpus.iew.memOrderViolationEvents        41514                       # Number of memory order violations
system.switch_cpus.iew.predictedNotTakenIncorrect      1522009                       # Number of branches that were predicted not taken incorrectly
system.switch_cpus.iew.predictedTakenIncorrect      1568238                       # Number of branches that were predicted taken incorrectly
system.switch_cpus.iew.wb_consumers         658619151                       # num instructions consuming a value
system.switch_cpus.iew.wb_count             584484813                       # cumulative count of insts written-back
system.switch_cpus.iew.wb_fanout             0.668697                       # average fanout of values written-back
system.switch_cpus.iew.wb_producers         440416876                       # num instructions producing a value
system.switch_cpus.iew.wb_rate               4.100906                       # insts written-back per cycle
system.switch_cpus.iew.wb_sent              587266552                       # cumulative count of insts sent to commit
system.switch_cpus.int_regfile_reads        852607061                       # number of integer regfile reads
system.switch_cpus.int_regfile_writes       494137198                       # number of integer regfile writes
system.switch_cpus.ipc                       1.754069                       # IPC: Instructions Per Cycle
system.switch_cpus.ipc_total                 1.754069                       # IPC: Total IPC of All Threads
system.switch_cpus.iq.FU_type_0::No_OpClass      1212479      0.20%      0.20% # Type of FU issued
system.switch_cpus.iq.FU_type_0::IntAlu     413970326     69.33%     69.53% # Type of FU issued
system.switch_cpus.iq.FU_type_0::IntMult      3578795      0.60%     70.13% # Type of FU issued
system.switch_cpus.iq.FU_type_0::IntDiv         24111      0.00%     70.14% # Type of FU issued
system.switch_cpus.iq.FU_type_0::FloatAdd            0      0.00%     70.14% # Type of FU issued
system.switch_cpus.iq.FU_type_0::FloatCmp            0      0.00%     70.14% # Type of FU issued
system.switch_cpus.iq.FU_type_0::FloatCvt            0      0.00%     70.14% # Type of FU issued
system.switch_cpus.iq.FU_type_0::FloatMult            0      0.00%     70.14% # Type of FU issued
system.switch_cpus.iq.FU_type_0::FloatMultAcc            0      0.00%     70.14% # Type of FU issued
system.switch_cpus.iq.FU_type_0::FloatDiv            0      0.00%     70.14% # Type of FU issued
system.switch_cpus.iq.FU_type_0::FloatMisc            0      0.00%     70.14% # Type of FU issued
system.switch_cpus.iq.FU_type_0::FloatSqrt            0      0.00%     70.14% # Type of FU issued
system.switch_cpus.iq.FU_type_0::SimdAdd            0      0.00%     70.14% # Type of FU issued
system.switch_cpus.iq.FU_type_0::SimdAddAcc            0      0.00%     70.14% # Type of FU issued
system.switch_cpus.iq.FU_type_0::SimdAlu            0      0.00%     70.14% # Type of FU issued
system.switch_cpus.iq.FU_type_0::SimdCmp            0      0.00%     70.14% # Type of FU issued
system.switch_cpus.iq.FU_type_0::SimdCvt            0      0.00%     70.14% # Type of FU issued
system.switch_cpus.iq.FU_type_0::SimdMisc            0      0.00%     70.14% # Type of FU issued
system.switch_cpus.iq.FU_type_0::SimdMult            0      0.00%     70.14% # Type of FU issued
system.switch_cpus.iq.FU_type_0::SimdMultAcc            0      0.00%     70.14% # Type of FU issued
system.switch_cpus.iq.FU_type_0::SimdShift            0      0.00%     70.14% # Type of FU issued
system.switch_cpus.iq.FU_type_0::SimdShiftAcc            0      0.00%     70.14% # Type of FU issued
system.switch_cpus.iq.FU_type_0::SimdDiv            0      0.00%     70.14% # Type of FU issued
system.switch_cpus.iq.FU_type_0::SimdSqrt            0      0.00%     70.14% # Type of FU issued
system.switch_cpus.iq.FU_type_0::SimdFloatAdd            0      0.00%     70.14% # Type of FU issued
system.switch_cpus.iq.FU_type_0::SimdFloatAlu            0      0.00%     70.14% # Type of FU issued
system.switch_cpus.iq.FU_type_0::SimdFloatCmp            0      0.00%     70.14% # Type of FU issued
system.switch_cpus.iq.FU_type_0::SimdFloatCvt            0      0.00%     70.14% # Type of FU issued
system.switch_cpus.iq.FU_type_0::SimdFloatDiv            0      0.00%     70.14% # Type of FU issued
system.switch_cpus.iq.FU_type_0::SimdFloatMisc            0      0.00%     70.14% # Type of FU issued
system.switch_cpus.iq.FU_type_0::SimdFloatMult            0      0.00%     70.14% # Type of FU issued
system.switch_cpus.iq.FU_type_0::SimdFloatMultAcc            0      0.00%     70.14% # Type of FU issued
system.switch_cpus.iq.FU_type_0::SimdFloatSqrt            0      0.00%     70.14% # Type of FU issued
system.switch_cpus.iq.FU_type_0::SimdReduceAdd            0      0.00%     70.14% # Type of FU issued
system.switch_cpus.iq.FU_type_0::SimdReduceAlu            0      0.00%     70.14% # Type of FU issued
system.switch_cpus.iq.FU_type_0::SimdReduceCmp            0      0.00%     70.14% # Type of FU issued
system.switch_cpus.iq.FU_type_0::SimdFloatReduceAdd            0      0.00%     70.14% # Type of FU issued
system.switch_cpus.iq.FU_type_0::SimdFloatReduceCmp            0      0.00%     70.14% # Type of FU issued
system.switch_cpus.iq.FU_type_0::SimdAes            0      0.00%     70.14% # Type of FU issued
system.switch_cpus.iq.FU_type_0::SimdAesMix            0      0.00%     70.14% # Type of FU issued
system.switch_cpus.iq.FU_type_0::SimdSha1Hash            0      0.00%     70.14% # Type of FU issued
system.switch_cpus.iq.FU_type_0::SimdSha1Hash2            0      0.00%     70.14% # Type of FU issued
system.switch_cpus.iq.FU_type_0::SimdSha256Hash            0      0.00%     70.14% # Type of FU issued
system.switch_cpus.iq.FU_type_0::SimdSha256Hash2            0      0.00%     70.14% # Type of FU issued
system.switch_cpus.iq.FU_type_0::SimdShaSigma2            0      0.00%     70.14% # Type of FU issued
system.switch_cpus.iq.FU_type_0::SimdShaSigma3            0      0.00%     70.14% # Type of FU issued
system.switch_cpus.iq.FU_type_0::SimdPredAlu            0      0.00%     70.14% # Type of FU issued
system.switch_cpus.iq.FU_type_0::MemRead    130055924     21.78%     91.92% # Type of FU issued
system.switch_cpus.iq.FU_type_0::MemWrite     48255794      8.08%    100.00% # Type of FU issued
system.switch_cpus.iq.FU_type_0::FloatMemRead         6402      0.00%    100.00% # Type of FU issued
system.switch_cpus.iq.FU_type_0::FloatMemWrite         6340      0.00%    100.00% # Type of FU issued
system.switch_cpus.iq.FU_type_0::IprAccess            0      0.00%    100.00% # Type of FU issued
system.switch_cpus.iq.FU_type_0::InstPrefetch            0      0.00%    100.00% # Type of FU issued
system.switch_cpus.iq.FU_type_0::total      597110171                       # Type of FU issued
system.switch_cpus.iq.fp_alu_accesses           18302                       # Number of floating point alu accesses
system.switch_cpus.iq.fp_inst_queue_reads        31049                       # Number of floating instruction queue reads
system.switch_cpus.iq.fp_inst_queue_wakeup_accesses        12646                       # Number of floating instruction queue wakeup accesses
system.switch_cpus.iq.fp_inst_queue_writes        13390                       # Number of floating instruction queue writes
system.switch_cpus.iq.fu_busy_cnt            18179114                       # FU busy when requested
system.switch_cpus.iq.fu_busy_rate           0.030445                       # FU busy rate (busy events/executed inst)
system.switch_cpus.iq.fu_full::No_OpClass            0      0.00%      0.00% # attempts to use FU when none available
system.switch_cpus.iq.fu_full::IntAlu        11324976     62.30%     62.30% # attempts to use FU when none available
system.switch_cpus.iq.fu_full::IntMult              0      0.00%     62.30% # attempts to use FU when none available
system.switch_cpus.iq.fu_full::IntDiv               0      0.00%     62.30% # attempts to use FU when none available
system.switch_cpus.iq.fu_full::FloatAdd             0      0.00%     62.30% # attempts to use FU when none available
system.switch_cpus.iq.fu_full::FloatCmp             0      0.00%     62.30% # attempts to use FU when none available
system.switch_cpus.iq.fu_full::FloatCvt             0      0.00%     62.30% # attempts to use FU when none available
system.switch_cpus.iq.fu_full::FloatMult            0      0.00%     62.30% # attempts to use FU when none available
system.switch_cpus.iq.fu_full::FloatMultAcc            0      0.00%     62.30% # attempts to use FU when none available
system.switch_cpus.iq.fu_full::FloatDiv             0      0.00%     62.30% # attempts to use FU when none available
system.switch_cpus.iq.fu_full::FloatMisc            0      0.00%     62.30% # attempts to use FU when none available
system.switch_cpus.iq.fu_full::FloatSqrt            0      0.00%     62.30% # attempts to use FU when none available
system.switch_cpus.iq.fu_full::SimdAdd              0      0.00%     62.30% # attempts to use FU when none available
system.switch_cpus.iq.fu_full::SimdAddAcc            0      0.00%     62.30% # attempts to use FU when none available
system.switch_cpus.iq.fu_full::SimdAlu              0      0.00%     62.30% # attempts to use FU when none available
system.switch_cpus.iq.fu_full::SimdCmp              0      0.00%     62.30% # attempts to use FU when none available
system.switch_cpus.iq.fu_full::SimdCvt              0      0.00%     62.30% # attempts to use FU when none available
system.switch_cpus.iq.fu_full::SimdMisc             0      0.00%     62.30% # attempts to use FU when none available
system.switch_cpus.iq.fu_full::SimdMult             0      0.00%     62.30% # attempts to use FU when none available
system.switch_cpus.iq.fu_full::SimdMultAcc            0      0.00%     62.30% # attempts to use FU when none available
system.switch_cpus.iq.fu_full::SimdShift            0      0.00%     62.30% # attempts to use FU when none available
system.switch_cpus.iq.fu_full::SimdShiftAcc            0      0.00%     62.30% # attempts to use FU when none available
system.switch_cpus.iq.fu_full::SimdDiv              0      0.00%     62.30% # attempts to use FU when none available
system.switch_cpus.iq.fu_full::SimdSqrt             0      0.00%     62.30% # attempts to use FU when none available
system.switch_cpus.iq.fu_full::SimdFloatAdd            0      0.00%     62.30% # attempts to use FU when none available
system.switch_cpus.iq.fu_full::SimdFloatAlu            0      0.00%     62.30% # attempts to use FU when none available
system.switch_cpus.iq.fu_full::SimdFloatCmp            0      0.00%     62.30% # attempts to use FU when none available
system.switch_cpus.iq.fu_full::SimdFloatCvt            0      0.00%     62.30% # attempts to use FU when none available
system.switch_cpus.iq.fu_full::SimdFloatDiv            0      0.00%     62.30% # attempts to use FU when none available
system.switch_cpus.iq.fu_full::SimdFloatMisc            0      0.00%     62.30% # attempts to use FU when none available
system.switch_cpus.iq.fu_full::SimdFloatMult            0      0.00%     62.30% # attempts to use FU when none available
system.switch_cpus.iq.fu_full::SimdFloatMultAcc            0      0.00%     62.30% # attempts to use FU when none available
system.switch_cpus.iq.fu_full::SimdFloatSqrt            0      0.00%     62.30% # attempts to use FU when none available
system.switch_cpus.iq.fu_full::SimdReduceAdd            0      0.00%     62.30% # attempts to use FU when none available
system.switch_cpus.iq.fu_full::SimdReduceAlu            0      0.00%     62.30% # attempts to use FU when none available
system.switch_cpus.iq.fu_full::SimdReduceCmp            0      0.00%     62.30% # attempts to use FU when none available
system.switch_cpus.iq.fu_full::SimdFloatReduceAdd            0      0.00%     62.30% # attempts to use FU when none available
system.switch_cpus.iq.fu_full::SimdFloatReduceCmp            0      0.00%     62.30% # attempts to use FU when none available
system.switch_cpus.iq.fu_full::SimdAes              0      0.00%     62.30% # attempts to use FU when none available
system.switch_cpus.iq.fu_full::SimdAesMix            0      0.00%     62.30% # attempts to use FU when none available
system.switch_cpus.iq.fu_full::SimdSha1Hash            0      0.00%     62.30% # attempts to use FU when none available
system.switch_cpus.iq.fu_full::SimdSha1Hash2            0      0.00%     62.30% # attempts to use FU when none available
system.switch_cpus.iq.fu_full::SimdSha256Hash            0      0.00%     62.30% # attempts to use FU when none available
system.switch_cpus.iq.fu_full::SimdSha256Hash2            0      0.00%     62.30% # attempts to use FU when none available
system.switch_cpus.iq.fu_full::SimdShaSigma2            0      0.00%     62.30% # attempts to use FU when none available
system.switch_cpus.iq.fu_full::SimdShaSigma3            0      0.00%     62.30% # attempts to use FU when none available
system.switch_cpus.iq.fu_full::SimdPredAlu            0      0.00%     62.30% # attempts to use FU when none available
system.switch_cpus.iq.fu_full::MemRead        5673367     31.21%     93.50% # attempts to use FU when none available
system.switch_cpus.iq.fu_full::MemWrite       1175211      6.46%     99.97% # attempts to use FU when none available
system.switch_cpus.iq.fu_full::FloatMemRead         2368      0.01%     99.98% # attempts to use FU when none available
system.switch_cpus.iq.fu_full::FloatMemWrite         3192      0.02%    100.00% # attempts to use FU when none available
system.switch_cpus.iq.fu_full::IprAccess            0      0.00%    100.00% # attempts to use FU when none available
system.switch_cpus.iq.fu_full::InstPrefetch            0      0.00%    100.00% # attempts to use FU when none available
system.switch_cpus.iq.int_alu_accesses      614058504                       # Number of integer alu accesses
system.switch_cpus.iq.int_inst_queue_reads   1356440926                       # Number of integer instruction queue reads
system.switch_cpus.iq.int_inst_queue_wakeup_accesses    584472167                       # Number of integer instruction queue wakeup accesses
system.switch_cpus.iq.int_inst_queue_writes    798933045                       # Number of integer instruction queue writes
system.switch_cpus.iq.iqInstsAdded          644101944                       # Number of instructions added to the IQ (excludes non-spec)
system.switch_cpus.iq.iqInstsIssued         597110171                       # Number of instructions issued
system.switch_cpus.iq.iqSquashedInstsExamined    154803977                       # Number of squashed instructions iterated over during squash; mainly for profiling
system.switch_cpus.iq.iqSquashedInstsIssued      1747456                       # Number of squashed instructions issued
system.switch_cpus.iq.iqSquashedOperandsExamined    202700848                       # Number of squashed operands that are examined and possibly removed from graph
system.switch_cpus.iq.issued_per_cycle::samples    142325070                       # Number of insts issued each cycle
system.switch_cpus.iq.issued_per_cycle::mean     4.195397                       # Number of insts issued each cycle
system.switch_cpus.iq.issued_per_cycle::stdev     2.863861                       # Number of insts issued each cycle
system.switch_cpus.iq.issued_per_cycle::underflows            0      0.00%      0.00% # Number of insts issued each cycle
system.switch_cpus.iq.issued_per_cycle::0     32370666     22.74%     22.74% # Number of insts issued each cycle
system.switch_cpus.iq.issued_per_cycle::1      4837196      3.40%     26.14% # Number of insts issued each cycle
system.switch_cpus.iq.issued_per_cycle::2      5978674      4.20%     30.34% # Number of insts issued each cycle
system.switch_cpus.iq.issued_per_cycle::3      9475811      6.66%     37.00% # Number of insts issued each cycle
system.switch_cpus.iq.issued_per_cycle::4     13781300      9.68%     46.68% # Number of insts issued each cycle
system.switch_cpus.iq.issued_per_cycle::5     15216685     10.69%     57.38% # Number of insts issued each cycle
system.switch_cpus.iq.issued_per_cycle::6     22250545     15.63%     73.01% # Number of insts issued each cycle
system.switch_cpus.iq.issued_per_cycle::7     20137245     14.15%     87.16% # Number of insts issued each cycle
system.switch_cpus.iq.issued_per_cycle::8     18276948     12.84%    100.00% # Number of insts issued each cycle
system.switch_cpus.iq.issued_per_cycle::overflows            0      0.00%    100.00% # Number of insts issued each cycle
system.switch_cpus.iq.issued_per_cycle::min_value            0                       # Number of insts issued each cycle
system.switch_cpus.iq.issued_per_cycle::max_value            8                       # Number of insts issued each cycle
system.switch_cpus.iq.issued_per_cycle::total    142325070                       # Number of insts issued each cycle
system.switch_cpus.iq.rate                   4.189489                       # Inst issue rate
system.switch_cpus.iq.vec_alu_accesses              0                       # Number of vector alu accesses
system.switch_cpus.iq.vec_inst_queue_reads            0                       # Number of vector instruction queue reads
system.switch_cpus.iq.vec_inst_queue_wakeup_accesses            0                       # Number of vector instruction queue wakeup accesses
system.switch_cpus.iq.vec_inst_queue_writes            0                       # Number of vector instruction queue writes
system.switch_cpus.memDep0.conflictingLoads     28352580                       # Number of conflicting loads.
system.switch_cpus.memDep0.conflictingStores     17073330                       # Number of conflicting stores.
system.switch_cpus.memDep0.insertedLoads    138994473                       # Number of loads inserted to the mem dependence unit.
system.switch_cpus.memDep0.insertedStores     55588684                       # Number of stores inserted to the mem dependence unit.
system.switch_cpus.misc_regfile_reads       282417823                       # number of misc regfile reads
system.switch_cpus.misc_regfile_writes              1                       # number of misc regfile writes
system.switch_cpus.numCycles                142525781                       # number of cpu cycles simulated
system.switch_cpus.numWorkItemsCompleted            0                       # number of work items this cpu completed
system.switch_cpus.numWorkItemsStarted              0                       # number of work items this cpu started
system.switch_cpus.timesIdled                    1181                       # Number of times that the entire CPU went into an idle state and unscheduled itself
system.clk_domain.clock                           333                       # Clock period in ticks
system.cpu.dcache.demand_hits::.cpu.data            3                       # number of demand (read+write) hits
system.cpu.dcache.demand_hits::.switch_cpus.data    136552610                       # number of demand (read+write) hits
system.cpu.dcache.demand_hits::total        136552613                       # number of demand (read+write) hits
system.cpu.dcache.overall_hits::.cpu.data            3                       # number of overall hits
system.cpu.dcache.overall_hits::.switch_cpus.data    156246303                       # number of overall hits
system.cpu.dcache.overall_hits::total       156246306                       # number of overall hits
system.cpu.dcache.demand_misses::.cpu.data            7                       # number of demand (read+write) misses
system.cpu.dcache.demand_misses::.switch_cpus.data          530                       # number of demand (read+write) misses
system.cpu.dcache.demand_misses::total            537                       # number of demand (read+write) misses
system.cpu.dcache.overall_misses::.cpu.data            7                       # number of overall misses
system.cpu.dcache.overall_misses::.switch_cpus.data          597                       # number of overall misses
system.cpu.dcache.overall_misses::total           604                       # number of overall misses
system.cpu.dcache.demand_miss_latency::.switch_cpus.data     38654973                       # number of demand (read+write) miss cycles
system.cpu.dcache.demand_miss_latency::total     38654973                       # number of demand (read+write) miss cycles
system.cpu.dcache.overall_miss_latency::.switch_cpus.data     38654973                       # number of overall miss cycles
system.cpu.dcache.overall_miss_latency::total     38654973                       # number of overall miss cycles
system.cpu.dcache.demand_accesses::.cpu.data           10                       # number of demand (read+write) accesses
system.cpu.dcache.demand_accesses::.switch_cpus.data    136553140                       # number of demand (read+write) accesses
system.cpu.dcache.demand_accesses::total    136553150                       # number of demand (read+write) accesses
system.cpu.dcache.overall_accesses::.cpu.data           10                       # number of overall (read+write) accesses
system.cpu.dcache.overall_accesses::.switch_cpus.data    156246900                       # number of overall (read+write) accesses
system.cpu.dcache.overall_accesses::total    156246910                       # number of overall (read+write) accesses
system.cpu.dcache.demand_miss_rate::.cpu.data     0.700000                       # miss rate for demand accesses
system.cpu.dcache.demand_miss_rate::.switch_cpus.data     0.000004                       # miss rate for demand accesses
system.cpu.dcache.demand_miss_rate::total     0.000004                       # miss rate for demand accesses
system.cpu.dcache.overall_miss_rate::.cpu.data     0.700000                       # miss rate for overall accesses
system.cpu.dcache.overall_miss_rate::.switch_cpus.data     0.000004                       # miss rate for overall accesses
system.cpu.dcache.overall_miss_rate::total     0.000004                       # miss rate for overall accesses
system.cpu.dcache.demand_avg_miss_latency::.switch_cpus.data 72933.911321                       # average overall miss latency
system.cpu.dcache.demand_avg_miss_latency::total 71983.189944                       # average overall miss latency
system.cpu.dcache.overall_avg_miss_latency::.switch_cpus.data 64748.698492                       # average overall miss latency
system.cpu.dcache.overall_avg_miss_latency::total 63998.299669                       # average overall miss latency
system.cpu.dcache.blocked_cycles::no_mshrs            0                       # number of cycles access was blocked
system.cpu.dcache.blocked_cycles::no_targets          186                       # number of cycles access was blocked
system.cpu.dcache.blocked::no_mshrs                 0                       # number of cycles access was blocked
system.cpu.dcache.blocked::no_targets               1                       # number of cycles access was blocked
system.cpu.dcache.avg_blocked_cycles::no_mshrs          nan                       # average number of cycles each access was blocked
system.cpu.dcache.avg_blocked_cycles::no_targets          186                       # average number of cycles each access was blocked
system.cpu.dcache.demand_mshr_hits::.switch_cpus.data          295                       # number of demand (read+write) MSHR hits
system.cpu.dcache.demand_mshr_hits::total          295                       # number of demand (read+write) MSHR hits
system.cpu.dcache.overall_mshr_hits::.switch_cpus.data          295                       # number of overall MSHR hits
system.cpu.dcache.overall_mshr_hits::total          295                       # number of overall MSHR hits
system.cpu.dcache.demand_mshr_misses::.switch_cpus.data          235                       # number of demand (read+write) MSHR misses
system.cpu.dcache.demand_mshr_misses::total          235                       # number of demand (read+write) MSHR misses
system.cpu.dcache.overall_mshr_misses::.switch_cpus.data          292                       # number of overall MSHR misses
system.cpu.dcache.overall_mshr_misses::total          292                       # number of overall MSHR misses
system.cpu.dcache.demand_mshr_miss_latency::.switch_cpus.data     17691957                       # number of demand (read+write) MSHR miss cycles
system.cpu.dcache.demand_mshr_miss_latency::total     17691957                       # number of demand (read+write) MSHR miss cycles
system.cpu.dcache.overall_mshr_miss_latency::.switch_cpus.data     22228416                       # number of overall MSHR miss cycles
system.cpu.dcache.overall_mshr_miss_latency::total     22228416                       # number of overall MSHR miss cycles
system.cpu.dcache.demand_mshr_miss_rate::.switch_cpus.data     0.000002                       # mshr miss rate for demand accesses
system.cpu.dcache.demand_mshr_miss_rate::total     0.000002                       # mshr miss rate for demand accesses
system.cpu.dcache.overall_mshr_miss_rate::.switch_cpus.data     0.000002                       # mshr miss rate for overall accesses
system.cpu.dcache.overall_mshr_miss_rate::total     0.000002                       # mshr miss rate for overall accesses
system.cpu.dcache.demand_avg_mshr_miss_latency::.switch_cpus.data 75284.923404                       # average overall mshr miss latency
system.cpu.dcache.demand_avg_mshr_miss_latency::total 75284.923404                       # average overall mshr miss latency
system.cpu.dcache.overall_avg_mshr_miss_latency::.switch_cpus.data 76124.712329                       # average overall mshr miss latency
system.cpu.dcache.overall_avg_mshr_miss_latency::total 76124.712329                       # average overall mshr miss latency
system.cpu.dcache.replacements                      0                       # number of replacements
system.cpu.dcache.ReadReq_hits::.cpu.data            2                       # number of ReadReq hits
system.cpu.dcache.ReadReq_hits::.switch_cpus.data     92927994                       # number of ReadReq hits
system.cpu.dcache.ReadReq_hits::total        92927996                       # number of ReadReq hits
system.cpu.dcache.ReadReq_misses::.cpu.data            4                       # number of ReadReq misses
system.cpu.dcache.ReadReq_misses::.switch_cpus.data          440                       # number of ReadReq misses
system.cpu.dcache.ReadReq_misses::total           444                       # number of ReadReq misses
system.cpu.dcache.ReadReq_miss_latency::.switch_cpus.data     32413554                       # number of ReadReq miss cycles
system.cpu.dcache.ReadReq_miss_latency::total     32413554                       # number of ReadReq miss cycles
system.cpu.dcache.ReadReq_accesses::.cpu.data            6                       # number of ReadReq accesses(hits+misses)
system.cpu.dcache.ReadReq_accesses::.switch_cpus.data     92928434                       # number of ReadReq accesses(hits+misses)
system.cpu.dcache.ReadReq_accesses::total     92928440                       # number of ReadReq accesses(hits+misses)
system.cpu.dcache.ReadReq_miss_rate::.cpu.data     0.666667                       # miss rate for ReadReq accesses
system.cpu.dcache.ReadReq_miss_rate::.switch_cpus.data     0.000005                       # miss rate for ReadReq accesses
system.cpu.dcache.ReadReq_miss_rate::total     0.000005                       # miss rate for ReadReq accesses
system.cpu.dcache.ReadReq_avg_miss_latency::.switch_cpus.data 73667.168182                       # average ReadReq miss latency
system.cpu.dcache.ReadReq_avg_miss_latency::total 73003.500000                       # average ReadReq miss latency
system.cpu.dcache.ReadReq_mshr_hits::.switch_cpus.data          293                       # number of ReadReq MSHR hits
system.cpu.dcache.ReadReq_mshr_hits::total          293                       # number of ReadReq MSHR hits
system.cpu.dcache.ReadReq_mshr_misses::.switch_cpus.data          147                       # number of ReadReq MSHR misses
system.cpu.dcache.ReadReq_mshr_misses::total          147                       # number of ReadReq MSHR misses
system.cpu.dcache.ReadReq_mshr_miss_latency::.switch_cpus.data     11574747                       # number of ReadReq MSHR miss cycles
system.cpu.dcache.ReadReq_mshr_miss_latency::total     11574747                       # number of ReadReq MSHR miss cycles
system.cpu.dcache.ReadReq_mshr_miss_rate::.switch_cpus.data     0.000002                       # mshr miss rate for ReadReq accesses
system.cpu.dcache.ReadReq_mshr_miss_rate::total     0.000002                       # mshr miss rate for ReadReq accesses
system.cpu.dcache.ReadReq_avg_mshr_miss_latency::.switch_cpus.data 78739.775510                       # average ReadReq mshr miss latency
system.cpu.dcache.ReadReq_avg_mshr_miss_latency::total 78739.775510                       # average ReadReq mshr miss latency
system.cpu.dcache.WriteReq_hits::.cpu.data            1                       # number of WriteReq hits
system.cpu.dcache.WriteReq_hits::.switch_cpus.data     43624616                       # number of WriteReq hits
system.cpu.dcache.WriteReq_hits::total       43624617                       # number of WriteReq hits
system.cpu.dcache.WriteReq_misses::.cpu.data            3                       # number of WriteReq misses
system.cpu.dcache.WriteReq_misses::.switch_cpus.data           90                       # number of WriteReq misses
system.cpu.dcache.WriteReq_misses::total           93                       # number of WriteReq misses
system.cpu.dcache.WriteReq_miss_latency::.switch_cpus.data      6241419                       # number of WriteReq miss cycles
system.cpu.dcache.WriteReq_miss_latency::total      6241419                       # number of WriteReq miss cycles
system.cpu.dcache.WriteReq_accesses::.cpu.data            4                       # number of WriteReq accesses(hits+misses)
system.cpu.dcache.WriteReq_accesses::.switch_cpus.data     43624706                       # number of WriteReq accesses(hits+misses)
system.cpu.dcache.WriteReq_accesses::total     43624710                       # number of WriteReq accesses(hits+misses)
system.cpu.dcache.WriteReq_miss_rate::.cpu.data     0.750000                       # miss rate for WriteReq accesses
system.cpu.dcache.WriteReq_miss_rate::.switch_cpus.data     0.000002                       # miss rate for WriteReq accesses
system.cpu.dcache.WriteReq_miss_rate::total     0.000002                       # miss rate for WriteReq accesses
system.cpu.dcache.WriteReq_avg_miss_latency::.switch_cpus.data 69349.100000                       # average WriteReq miss latency
system.cpu.dcache.WriteReq_avg_miss_latency::total 67112.032258                       # average WriteReq miss latency
system.cpu.dcache.WriteReq_mshr_hits::.switch_cpus.data            2                       # number of WriteReq MSHR hits
system.cpu.dcache.WriteReq_mshr_hits::total            2                       # number of WriteReq MSHR hits
system.cpu.dcache.WriteReq_mshr_misses::.switch_cpus.data           88                       # number of WriteReq MSHR misses
system.cpu.dcache.WriteReq_mshr_misses::total           88                       # number of WriteReq MSHR misses
system.cpu.dcache.WriteReq_mshr_miss_latency::.switch_cpus.data      6117210                       # number of WriteReq MSHR miss cycles
system.cpu.dcache.WriteReq_mshr_miss_latency::total      6117210                       # number of WriteReq MSHR miss cycles
system.cpu.dcache.WriteReq_mshr_miss_rate::.switch_cpus.data     0.000002                       # mshr miss rate for WriteReq accesses
system.cpu.dcache.WriteReq_mshr_miss_rate::total     0.000002                       # mshr miss rate for WriteReq accesses
system.cpu.dcache.WriteReq_avg_mshr_miss_latency::.switch_cpus.data 69513.750000                       # average WriteReq mshr miss latency
system.cpu.dcache.WriteReq_avg_mshr_miss_latency::total 69513.750000                       # average WriteReq mshr miss latency
system.cpu.dcache.SoftPFReq_hits::.switch_cpus.data     19693693                       # number of SoftPFReq hits
system.cpu.dcache.SoftPFReq_hits::total      19693693                       # number of SoftPFReq hits
system.cpu.dcache.SoftPFReq_misses::.switch_cpus.data           67                       # number of SoftPFReq misses
system.cpu.dcache.SoftPFReq_misses::total           67                       # number of SoftPFReq misses
system.cpu.dcache.SoftPFReq_accesses::.switch_cpus.data     19693760                       # number of SoftPFReq accesses(hits+misses)
system.cpu.dcache.SoftPFReq_accesses::total     19693760                       # number of SoftPFReq accesses(hits+misses)
system.cpu.dcache.SoftPFReq_miss_rate::.switch_cpus.data     0.000003                       # miss rate for SoftPFReq accesses
system.cpu.dcache.SoftPFReq_miss_rate::total     0.000003                       # miss rate for SoftPFReq accesses
system.cpu.dcache.SoftPFReq_mshr_misses::.switch_cpus.data           57                       # number of SoftPFReq MSHR misses
system.cpu.dcache.SoftPFReq_mshr_misses::total           57                       # number of SoftPFReq MSHR misses
system.cpu.dcache.SoftPFReq_mshr_miss_latency::.switch_cpus.data      4536459                       # number of SoftPFReq MSHR miss cycles
system.cpu.dcache.SoftPFReq_mshr_miss_latency::total      4536459                       # number of SoftPFReq MSHR miss cycles
system.cpu.dcache.SoftPFReq_mshr_miss_rate::.switch_cpus.data     0.000003                       # mshr miss rate for SoftPFReq accesses
system.cpu.dcache.SoftPFReq_mshr_miss_rate::total     0.000003                       # mshr miss rate for SoftPFReq accesses
system.cpu.dcache.SoftPFReq_avg_mshr_miss_latency::.switch_cpus.data        79587                       # average SoftPFReq mshr miss latency
system.cpu.dcache.SoftPFReq_avg_mshr_miss_latency::total        79587                       # average SoftPFReq mshr miss latency
system.cpu.dcache.power_state.pwrStateResidencyTicks::UNDEFINED 19790306150400                       # Cumulative time (in ticks) in various power states
system.cpu.dcache.tags.tagsinuse           238.212005                       # Cycle average of tags in use
system.cpu.dcache.tags.total_refs           156246605                       # Total number of references to valid blocks.
system.cpu.dcache.tags.sampled_refs               299                       # Sample count of references to valid blocks.
system.cpu.dcache.tags.avg_refs          522563.896321                       # Average number of references to valid blocks.
system.cpu.dcache.tags.warmup_cycle      19742845055670                       # Cycle when the warmup percentage was hit.
system.cpu.dcache.tags.occ_blocks::.cpu.data     6.999999                       # Average occupied blocks per requestor
system.cpu.dcache.tags.occ_blocks::.switch_cpus.data   231.212005                       # Average occupied blocks per requestor
system.cpu.dcache.tags.occ_percent::.cpu.data     0.013672                       # Average percentage of cache occupancy
system.cpu.dcache.tags.occ_percent::.switch_cpus.data     0.451586                       # Average percentage of cache occupancy
system.cpu.dcache.tags.occ_percent::total     0.465258                       # Average percentage of cache occupancy
system.cpu.dcache.tags.occ_task_id_blocks::1024          299                       # Occupied blocks per task id
system.cpu.dcache.tags.age_task_id_blocks_1024::4          299                       # Occupied blocks per task id
system.cpu.dcache.tags.occ_task_id_percent::1024     0.583984                       # Percentage of cache occupancy per task id
system.cpu.dcache.tags.tag_accesses        1249975579                       # Number of tag accesses
system.cpu.dcache.tags.data_accesses       1249975579                       # Number of data accesses
system.cpu.dcache.tags.power_state.pwrStateResidencyTicks::UNDEFINED 19790306150400                       # Cumulative time (in ticks) in various power states
system.cpu.dtb.rdAccesses                           6                       # TLB accesses on read requests
system.cpu.dtb.wrAccesses                           4                       # TLB accesses on write requests
system.cpu.dtb.rdMisses                             0                       # TLB misses on read requests
system.cpu.dtb.wrMisses                             0                       # TLB misses on write requests
system.cpu.dtb.walker.power_state.pwrStateResidencyTicks::UNDEFINED 19790306150400                       # Cumulative time (in ticks) in various power states
system.cpu.icache.demand_hits::.cpu.inst           23                       # number of demand (read+write) hits
system.cpu.icache.demand_hits::.switch_cpus.inst     53652087                       # number of demand (read+write) hits
system.cpu.icache.demand_hits::total         53652110                       # number of demand (read+write) hits
system.cpu.icache.overall_hits::.cpu.inst           23                       # number of overall hits
system.cpu.icache.overall_hits::.switch_cpus.inst     53652087                       # number of overall hits
system.cpu.icache.overall_hits::total        53652110                       # number of overall hits
system.cpu.icache.demand_misses::.cpu.inst            2                       # number of demand (read+write) misses
system.cpu.icache.demand_misses::.switch_cpus.inst         7758                       # number of demand (read+write) misses
system.cpu.icache.demand_misses::total           7760                       # number of demand (read+write) misses
system.cpu.icache.overall_misses::.cpu.inst            2                       # number of overall misses
system.cpu.icache.overall_misses::.switch_cpus.inst         7758                       # number of overall misses
system.cpu.icache.overall_misses::total          7760                       # number of overall misses
system.cpu.icache.demand_miss_latency::.switch_cpus.inst    167789043                       # number of demand (read+write) miss cycles
system.cpu.icache.demand_miss_latency::total    167789043                       # number of demand (read+write) miss cycles
system.cpu.icache.overall_miss_latency::.switch_cpus.inst    167789043                       # number of overall miss cycles
system.cpu.icache.overall_miss_latency::total    167789043                       # number of overall miss cycles
system.cpu.icache.demand_accesses::.cpu.inst           25                       # number of demand (read+write) accesses
system.cpu.icache.demand_accesses::.switch_cpus.inst     53659845                       # number of demand (read+write) accesses
system.cpu.icache.demand_accesses::total     53659870                       # number of demand (read+write) accesses
system.cpu.icache.overall_accesses::.cpu.inst           25                       # number of overall (read+write) accesses
system.cpu.icache.overall_accesses::.switch_cpus.inst     53659845                       # number of overall (read+write) accesses
system.cpu.icache.overall_accesses::total     53659870                       # number of overall (read+write) accesses
system.cpu.icache.demand_miss_rate::.cpu.inst     0.080000                       # miss rate for demand accesses
system.cpu.icache.demand_miss_rate::.switch_cpus.inst     0.000145                       # miss rate for demand accesses
system.cpu.icache.demand_miss_rate::total     0.000145                       # miss rate for demand accesses
system.cpu.icache.overall_miss_rate::.cpu.inst     0.080000                       # miss rate for overall accesses
system.cpu.icache.overall_miss_rate::.switch_cpus.inst     0.000145                       # miss rate for overall accesses
system.cpu.icache.overall_miss_rate::total     0.000145                       # miss rate for overall accesses
system.cpu.icache.demand_avg_miss_latency::.switch_cpus.inst 21627.873550                       # average overall miss latency
system.cpu.icache.demand_avg_miss_latency::total 21622.299356                       # average overall miss latency
system.cpu.icache.overall_avg_miss_latency::.switch_cpus.inst 21627.873550                       # average overall miss latency
system.cpu.icache.overall_avg_miss_latency::total 21622.299356                       # average overall miss latency
system.cpu.icache.blocked_cycles::no_mshrs            0                       # number of cycles access was blocked
system.cpu.icache.blocked_cycles::no_targets            0                       # number of cycles access was blocked
system.cpu.icache.blocked::no_mshrs                 0                       # number of cycles access was blocked
system.cpu.icache.blocked::no_targets               0                       # number of cycles access was blocked
system.cpu.icache.avg_blocked_cycles::no_mshrs          nan                       # average number of cycles each access was blocked
system.cpu.icache.avg_blocked_cycles::no_targets          nan                       # average number of cycles each access was blocked
system.cpu.icache.writebacks::.writebacks         6274                       # number of writebacks
system.cpu.icache.writebacks::total              6274                       # number of writebacks
system.cpu.icache.demand_mshr_hits::.switch_cpus.inst          974                       # number of demand (read+write) MSHR hits
system.cpu.icache.demand_mshr_hits::total          974                       # number of demand (read+write) MSHR hits
system.cpu.icache.overall_mshr_hits::.switch_cpus.inst          974                       # number of overall MSHR hits
system.cpu.icache.overall_mshr_hits::total          974                       # number of overall MSHR hits
system.cpu.icache.demand_mshr_misses::.switch_cpus.inst         6784                       # number of demand (read+write) MSHR misses
system.cpu.icache.demand_mshr_misses::total         6784                       # number of demand (read+write) MSHR misses
system.cpu.icache.overall_mshr_misses::.switch_cpus.inst         6784                       # number of overall MSHR misses
system.cpu.icache.overall_mshr_misses::total         6784                       # number of overall MSHR misses
system.cpu.icache.demand_mshr_miss_latency::.switch_cpus.inst    131761440                       # number of demand (read+write) MSHR miss cycles
system.cpu.icache.demand_mshr_miss_latency::total    131761440                       # number of demand (read+write) MSHR miss cycles
system.cpu.icache.overall_mshr_miss_latency::.switch_cpus.inst    131761440                       # number of overall MSHR miss cycles
system.cpu.icache.overall_mshr_miss_latency::total    131761440                       # number of overall MSHR miss cycles
system.cpu.icache.demand_mshr_miss_rate::.switch_cpus.inst     0.000126                       # mshr miss rate for demand accesses
system.cpu.icache.demand_mshr_miss_rate::total     0.000126                       # mshr miss rate for demand accesses
system.cpu.icache.overall_mshr_miss_rate::.switch_cpus.inst     0.000126                       # mshr miss rate for overall accesses
system.cpu.icache.overall_mshr_miss_rate::total     0.000126                       # mshr miss rate for overall accesses
system.cpu.icache.demand_avg_mshr_miss_latency::.switch_cpus.inst 19422.382075                       # average overall mshr miss latency
system.cpu.icache.demand_avg_mshr_miss_latency::total 19422.382075                       # average overall mshr miss latency
system.cpu.icache.overall_avg_mshr_miss_latency::.switch_cpus.inst 19422.382075                       # average overall mshr miss latency
system.cpu.icache.overall_avg_mshr_miss_latency::total 19422.382075                       # average overall mshr miss latency
system.cpu.icache.replacements                   6274                       # number of replacements
system.cpu.icache.ReadReq_hits::.cpu.inst           23                       # number of ReadReq hits
system.cpu.icache.ReadReq_hits::.switch_cpus.inst     53652087                       # number of ReadReq hits
system.cpu.icache.ReadReq_hits::total        53652110                       # number of ReadReq hits
system.cpu.icache.ReadReq_misses::.cpu.inst            2                       # number of ReadReq misses
system.cpu.icache.ReadReq_misses::.switch_cpus.inst         7758                       # number of ReadReq misses
system.cpu.icache.ReadReq_misses::total          7760                       # number of ReadReq misses
system.cpu.icache.ReadReq_miss_latency::.switch_cpus.inst    167789043                       # number of ReadReq miss cycles
system.cpu.icache.ReadReq_miss_latency::total    167789043                       # number of ReadReq miss cycles
system.cpu.icache.ReadReq_accesses::.cpu.inst           25                       # number of ReadReq accesses(hits+misses)
system.cpu.icache.ReadReq_accesses::.switch_cpus.inst     53659845                       # number of ReadReq accesses(hits+misses)
system.cpu.icache.ReadReq_accesses::total     53659870                       # number of ReadReq accesses(hits+misses)
system.cpu.icache.ReadReq_miss_rate::.cpu.inst     0.080000                       # miss rate for ReadReq accesses
system.cpu.icache.ReadReq_miss_rate::.switch_cpus.inst     0.000145                       # miss rate for ReadReq accesses
system.cpu.icache.ReadReq_miss_rate::total     0.000145                       # miss rate for ReadReq accesses
system.cpu.icache.ReadReq_avg_miss_latency::.switch_cpus.inst 21627.873550                       # average ReadReq miss latency
system.cpu.icache.ReadReq_avg_miss_latency::total 21622.299356                       # average ReadReq miss latency
system.cpu.icache.ReadReq_mshr_hits::.switch_cpus.inst          974                       # number of ReadReq MSHR hits
system.cpu.icache.ReadReq_mshr_hits::total          974                       # number of ReadReq MSHR hits
system.cpu.icache.ReadReq_mshr_misses::.switch_cpus.inst         6784                       # number of ReadReq MSHR misses
system.cpu.icache.ReadReq_mshr_misses::total         6784                       # number of ReadReq MSHR misses
system.cpu.icache.ReadReq_mshr_miss_latency::.switch_cpus.inst    131761440                       # number of ReadReq MSHR miss cycles
system.cpu.icache.ReadReq_mshr_miss_latency::total    131761440                       # number of ReadReq MSHR miss cycles
system.cpu.icache.ReadReq_mshr_miss_rate::.switch_cpus.inst     0.000126                       # mshr miss rate for ReadReq accesses
system.cpu.icache.ReadReq_mshr_miss_rate::total     0.000126                       # mshr miss rate for ReadReq accesses
system.cpu.icache.ReadReq_avg_mshr_miss_latency::.switch_cpus.inst 19422.382075                       # average ReadReq mshr miss latency
system.cpu.icache.ReadReq_avg_mshr_miss_latency::total 19422.382075                       # average ReadReq mshr miss latency
system.cpu.icache.power_state.pwrStateResidencyTicks::UNDEFINED 19790306150400                       # Cumulative time (in ticks) in various power states
system.cpu.icache.tags.tagsinuse           321.581578                       # Cycle average of tags in use
system.cpu.icache.tags.total_refs            53658896                       # Total number of references to valid blocks.
system.cpu.icache.tags.sampled_refs              6786                       # Sample count of references to valid blocks.
system.cpu.icache.tags.avg_refs           7907.293840                       # Average number of references to valid blocks.
system.cpu.icache.tags.warmup_cycle      19742845055337                       # Cycle when the warmup percentage was hit.
system.cpu.icache.tags.occ_blocks::.cpu.inst     1.144338                       # Average occupied blocks per requestor
system.cpu.icache.tags.occ_blocks::.switch_cpus.inst   320.437240                       # Average occupied blocks per requestor
system.cpu.icache.tags.occ_percent::.cpu.inst     0.002235                       # Average percentage of cache occupancy
system.cpu.icache.tags.occ_percent::.switch_cpus.inst     0.625854                       # Average percentage of cache occupancy
system.cpu.icache.tags.occ_percent::total     0.628089                       # Average percentage of cache occupancy
system.cpu.icache.tags.occ_task_id_blocks::1024          512                       # Occupied blocks per task id
system.cpu.icache.tags.age_task_id_blocks_1024::3          512                       # Occupied blocks per task id
system.cpu.icache.tags.occ_task_id_percent::1024            1                       # Percentage of cache occupancy per task id
system.cpu.icache.tags.tag_accesses         429285746                       # Number of tag accesses
system.cpu.icache.tags.data_accesses        429285746                       # Number of data accesses
system.cpu.icache.tags.power_state.pwrStateResidencyTicks::UNDEFINED 19790306150400                       # Cumulative time (in ticks) in various power states
system.cpu.interrupts.clk_domain.clock           5328                       # Clock period in ticks
system.cpu.itb.rdAccesses                           0                       # TLB accesses on read requests
system.cpu.itb.wrAccesses                          25                       # TLB accesses on write requests
system.cpu.itb.rdMisses                             0                       # TLB misses on read requests
system.cpu.itb.wrMisses                             0                       # TLB misses on write requests
system.cpu.itb.walker.power_state.pwrStateResidencyTicks::UNDEFINED 19790306150400                       # Cumulative time (in ticks) in various power states
system.cpu.l2bus.trans_dist::ReadResp            6994                       # Transaction distribution
system.cpu.l2bus.trans_dist::WritebackClean         6274                       # Transaction distribution
system.cpu.l2bus.trans_dist::ReadExReq             91                       # Transaction distribution
system.cpu.l2bus.trans_dist::ReadExResp            91                       # Transaction distribution
system.cpu.l2bus.trans_dist::ReadSharedReq         6994                       # Transaction distribution
system.cpu.l2bus.pkt_count_system.cpu.icache.mem_side_port::system.cpu.l2cache.cpu_side_port        19846                       # Packet count per connected requestor and responder (bytes)
system.cpu.l2bus.pkt_count_system.cpu.dcache.mem_side_port::system.cpu.l2cache.cpu_side_port          598                       # Packet count per connected requestor and responder (bytes)
system.cpu.l2bus.pkt_count::total               20444                       # Packet count per connected requestor and responder (bytes)
system.cpu.l2bus.pkt_size_system.cpu.icache.mem_side_port::system.cpu.l2cache.cpu_side_port       835840                       # Cumulative packet size per connected requestor and responder (bytes)
system.cpu.l2bus.pkt_size_system.cpu.dcache.mem_side_port::system.cpu.l2cache.cpu_side_port        19136                       # Cumulative packet size per connected requestor and responder (bytes)
system.cpu.l2bus.pkt_size::total               854976                       # Cumulative packet size per connected requestor and responder (bytes)
system.cpu.l2bus.snoops                             0                       # Total snoops (count)
system.cpu.l2bus.snoopTraffic                       0                       # Total snoop traffic (bytes)
system.cpu.l2bus.snoop_fanout::samples           7085                       # Request fanout histogram
system.cpu.l2bus.snoop_fanout::mean          0.000282                       # Request fanout histogram
system.cpu.l2bus.snoop_fanout::stdev         0.016800                       # Request fanout histogram
system.cpu.l2bus.snoop_fanout::underflows            0      0.00%      0.00% # Request fanout histogram
system.cpu.l2bus.snoop_fanout::0                 7083     99.97%     99.97% # Request fanout histogram
system.cpu.l2bus.snoop_fanout::1                    2      0.03%    100.00% # Request fanout histogram
system.cpu.l2bus.snoop_fanout::2                    0      0.00%    100.00% # Request fanout histogram
system.cpu.l2bus.snoop_fanout::3                    0      0.00%    100.00% # Request fanout histogram
system.cpu.l2bus.snoop_fanout::overflows            0      0.00%    100.00% # Request fanout histogram
system.cpu.l2bus.snoop_fanout::min_value            0                       # Request fanout histogram
system.cpu.l2bus.snoop_fanout::max_value            1                       # Request fanout histogram
system.cpu.l2bus.snoop_fanout::total             7085                       # Request fanout histogram
system.cpu.l2bus.power_state.pwrStateResidencyTicks::UNDEFINED 19790306150400                       # Cumulative time (in ticks) in various power states
system.cpu.l2bus.reqLayer0.occupancy          8624034                       # Layer occupancy (ticks)
system.cpu.l2bus.reqLayer0.utilization            0.0                       # Layer utilization (%)
system.cpu.l2bus.respLayer0.occupancy         6777216                       # Layer occupancy (ticks)
system.cpu.l2bus.respLayer0.utilization           0.0                       # Layer utilization (%)
system.cpu.l2bus.respLayer1.occupancy          291708                       # Layer occupancy (ticks)
system.cpu.l2bus.respLayer1.utilization           0.0                       # Layer utilization (%)
system.cpu.l2cache.demand_hits::.switch_cpus.inst         5390                       # number of demand (read+write) hits
system.cpu.l2cache.demand_hits::.switch_cpus.data            2                       # number of demand (read+write) hits
system.cpu.l2cache.demand_hits::total            5392                       # number of demand (read+write) hits
system.cpu.l2cache.overall_hits::.switch_cpus.inst         5390                       # number of overall hits
system.cpu.l2cache.overall_hits::.switch_cpus.data            2                       # number of overall hits
system.cpu.l2cache.overall_hits::total           5392                       # number of overall hits
system.cpu.l2cache.demand_misses::.cpu.inst            2                       # number of demand (read+write) misses
system.cpu.l2cache.demand_misses::.cpu.data            7                       # number of demand (read+write) misses
system.cpu.l2cache.demand_misses::.switch_cpus.inst         1394                       # number of demand (read+write) misses
system.cpu.l2cache.demand_misses::.switch_cpus.data          290                       # number of demand (read+write) misses
system.cpu.l2cache.demand_misses::total          1693                       # number of demand (read+write) misses
system.cpu.l2cache.overall_misses::.cpu.inst            2                       # number of overall misses
system.cpu.l2cache.overall_misses::.cpu.data            7                       # number of overall misses
system.cpu.l2cache.overall_misses::.switch_cpus.inst         1394                       # number of overall misses
system.cpu.l2cache.overall_misses::.switch_cpus.data          290                       # number of overall misses
system.cpu.l2cache.overall_misses::total         1693                       # number of overall misses
system.cpu.l2cache.demand_miss_latency::.switch_cpus.inst    106862364                       # number of demand (read+write) miss cycles
system.cpu.l2cache.demand_miss_latency::.switch_cpus.data     22020624                       # number of demand (read+write) miss cycles
system.cpu.l2cache.demand_miss_latency::total    128882988                       # number of demand (read+write) miss cycles
system.cpu.l2cache.overall_miss_latency::.switch_cpus.inst    106862364                       # number of overall miss cycles
system.cpu.l2cache.overall_miss_latency::.switch_cpus.data     22020624                       # number of overall miss cycles
system.cpu.l2cache.overall_miss_latency::total    128882988                       # number of overall miss cycles
system.cpu.l2cache.demand_accesses::.cpu.inst            2                       # number of demand (read+write) accesses
system.cpu.l2cache.demand_accesses::.cpu.data            7                       # number of demand (read+write) accesses
system.cpu.l2cache.demand_accesses::.switch_cpus.inst         6784                       # number of demand (read+write) accesses
system.cpu.l2cache.demand_accesses::.switch_cpus.data          292                       # number of demand (read+write) accesses
system.cpu.l2cache.demand_accesses::total         7085                       # number of demand (read+write) accesses
system.cpu.l2cache.overall_accesses::.cpu.inst            2                       # number of overall (read+write) accesses
system.cpu.l2cache.overall_accesses::.cpu.data            7                       # number of overall (read+write) accesses
system.cpu.l2cache.overall_accesses::.switch_cpus.inst         6784                       # number of overall (read+write) accesses
system.cpu.l2cache.overall_accesses::.switch_cpus.data          292                       # number of overall (read+write) accesses
system.cpu.l2cache.overall_accesses::total         7085                       # number of overall (read+write) accesses
system.cpu.l2cache.demand_miss_rate::.cpu.inst            1                       # miss rate for demand accesses
system.cpu.l2cache.demand_miss_rate::.cpu.data            1                       # miss rate for demand accesses
system.cpu.l2cache.demand_miss_rate::.switch_cpus.inst     0.205483                       # miss rate for demand accesses
system.cpu.l2cache.demand_miss_rate::.switch_cpus.data     0.993151                       # miss rate for demand accesses
system.cpu.l2cache.demand_miss_rate::total     0.238956                       # miss rate for demand accesses
system.cpu.l2cache.overall_miss_rate::.cpu.inst            1                       # miss rate for overall accesses
system.cpu.l2cache.overall_miss_rate::.cpu.data            1                       # miss rate for overall accesses
system.cpu.l2cache.overall_miss_rate::.switch_cpus.inst     0.205483                       # miss rate for overall accesses
system.cpu.l2cache.overall_miss_rate::.switch_cpus.data     0.993151                       # miss rate for overall accesses
system.cpu.l2cache.overall_miss_rate::total     0.238956                       # miss rate for overall accesses
system.cpu.l2cache.demand_avg_miss_latency::.switch_cpus.inst 76658.797704                       # average overall miss latency
system.cpu.l2cache.demand_avg_miss_latency::.switch_cpus.data 75933.186207                       # average overall miss latency
system.cpu.l2cache.demand_avg_miss_latency::total 76126.986415                       # average overall miss latency
system.cpu.l2cache.overall_avg_miss_latency::.switch_cpus.inst 76658.797704                       # average overall miss latency
system.cpu.l2cache.overall_avg_miss_latency::.switch_cpus.data 75933.186207                       # average overall miss latency
system.cpu.l2cache.overall_avg_miss_latency::total 76126.986415                       # average overall miss latency
system.cpu.l2cache.blocked_cycles::no_mshrs            0                       # number of cycles access was blocked
system.cpu.l2cache.blocked_cycles::no_targets            0                       # number of cycles access was blocked
system.cpu.l2cache.blocked::no_mshrs                0                       # number of cycles access was blocked
system.cpu.l2cache.blocked::no_targets              0                       # number of cycles access was blocked
system.cpu.l2cache.avg_blocked_cycles::no_mshrs          nan                       # average number of cycles each access was blocked
system.cpu.l2cache.avg_blocked_cycles::no_targets          nan                       # average number of cycles each access was blocked
system.cpu.l2cache.demand_mshr_misses::.switch_cpus.inst         1394                       # number of demand (read+write) MSHR misses
system.cpu.l2cache.demand_mshr_misses::.switch_cpus.data          290                       # number of demand (read+write) MSHR misses
system.cpu.l2cache.demand_mshr_misses::total         1684                       # number of demand (read+write) MSHR misses
system.cpu.l2cache.overall_mshr_misses::.switch_cpus.inst         1394                       # number of overall MSHR misses
system.cpu.l2cache.overall_mshr_misses::.switch_cpus.data          290                       # number of overall MSHR misses
system.cpu.l2cache.overall_mshr_misses::total         1684                       # number of overall MSHR misses
system.cpu.l2cache.demand_mshr_miss_latency::.switch_cpus.inst    106398162                       # number of demand (read+write) MSHR miss cycles
system.cpu.l2cache.demand_mshr_miss_latency::.switch_cpus.data     21924054                       # number of demand (read+write) MSHR miss cycles
system.cpu.l2cache.demand_mshr_miss_latency::total    128322216                       # number of demand (read+write) MSHR miss cycles
system.cpu.l2cache.overall_mshr_miss_latency::.switch_cpus.inst    106398162                       # number of overall MSHR miss cycles
system.cpu.l2cache.overall_mshr_miss_latency::.switch_cpus.data     21924054                       # number of overall MSHR miss cycles
[...]
system.switch_cpus.commit.numCommittedDist::mean     4.024125                       # Number of insts commited each cycle
system.switch_cpus.commit.numCommittedDist::stdev     3.228851                       # Number of insts commited each cycle
system.switch_cpus.commit.numCommittedDist::underflows            0      0.00%      0.00% # Number of insts commited each cycle
system.switch_cpus.commit.numCommittedDist::0     24247798     19.94%     19.94% # Number of insts commited each cycle
system.switch_cpus.commit.numCommittedDist::1     18585338     15.29%     35.23% # Number of insts commited each cycle
system.switch_cpus.commit.numCommittedDist::2      7136724      5.87%     41.10% # Number of insts commited each cycle
system.switch_cpus.commit.numCommittedDist::3     12688332     10.44%     51.53% # Number of insts commited each cycle
system.switch_cpus.commit.numCommittedDist::4      3828544      3.15%     54.68% # Number of insts commited each cycle
system.switch_cpus.commit.numCommittedDist::5      7037559      5.79%     60.47% # Number of insts commited each cycle
system.switch_cpus.commit.numCommittedDist::6      5889519      4.84%     65.31% # Number of insts commited each cycle
system.switch_cpus.commit.numCommittedDist::7      4883498      4.02%     69.33% # Number of insts commited each cycle
system.switch_cpus.commit.numCommittedDist::8     37293818     30.67%    100.00% # Number of insts commited each cycle
system.switch_cpus.commit.numCommittedDist::overflows            0      0.00%    100.00% # Number of insts commited each cycle
system.switch_cpus.commit.numCommittedDist::min_value            0                       # Number of insts commited each cycle
system.switch_cpus.commit.numCommittedDist::max_value            8                       # Number of insts commited each cycle
system.switch_cpus.commit.numCommittedDist::total    121591130                       # Number of insts commited each cycle
system.switch_cpus.commit.instsCommitted    250000003                       # Number of instructions committed
system.switch_cpus.commit.opsCommitted      489297897                       # Number of ops (including micro ops) committed
system.switch_cpus.commit.memRefs           144801525                       # Number of memory references committed
system.switch_cpus.commit.loads             101176831                       # Number of loads committed
system.switch_cpus.commit.amos                      0                       # Number of atomic instructions committed
system.switch_cpus.commit.membars                   0                       # Number of memory barriers committed
system.switch_cpus.commit.branches           42318782                       # Number of branches committed
system.switch_cpus.commit.vector                    0                       # Number of committed Vector instructions.
system.switch_cpus.commit.floating              12358                       # Number of committed floating point instructions.
system.switch_cpus.commit.integer           486637507                       # Number of committed integer instructions.
system.switch_cpus.commit.functionCalls         81395                       # Number of function calls committed.
system.switch_cpus.commit.committedInstType_0::No_OpClass      1018821      0.21%      0.21% # Class of committed instruction
system.switch_cpus.commit.committedInstType_0::IntAlu    339908769     69.47%     69.68% # Class of committed instruction
system.switch_cpus.commit.committedInstType_0::IntMult      3544702      0.72%     70.40% # Class of committed instruction
system.switch_cpus.commit.committedInstType_0::IntDiv        24080      0.00%     70.41% # Class of committed instruction
system.switch_cpus.commit.committedInstType_0::FloatAdd            0      0.00%     70.41% # Class of committed instruction
system.switch_cpus.commit.committedInstType_0::FloatCmp            0      0.00%     70.41% # Class of committed instruction
system.switch_cpus.commit.committedInstType_0::FloatCvt            0      0.00%     70.41% # Class of committed instruction
system.switch_cpus.commit.committedInstType_0::FloatMult            0      0.00%     70.41% # Class of committed instruction
system.switch_cpus.commit.committedInstType_0::FloatMultAcc            0      0.00%     70.41% # Class of committed instruction
system.switch_cpus.commit.committedInstType_0::FloatDiv            0      0.00%     70.41% # Class of committed instruction
system.switch_cpus.commit.committedInstType_0::FloatMisc            0      0.00%     70.41% # Class of committed instruction
system.switch_cpus.commit.committedInstType_0::FloatSqrt            0      0.00%     70.41% # Class of committed instruction
system.switch_cpus.commit.committedInstType_0::SimdAdd            0      0.00%     70.41% # Class of committed instruction
system.switch_cpus.commit.committedInstType_0::SimdAddAcc            0      0.00%     70.41% # Class of committed instruction
system.switch_cpus.commit.committedInstType_0::SimdAlu            0      0.00%     70.41% # Class of committed instruction
system.switch_cpus.commit.committedInstType_0::SimdCmp            0      0.00%     70.41% # Class of committed instruction
system.switch_cpus.commit.committedInstType_0::SimdCvt            0      0.00%     70.41% # Class of committed instruction
system.switch_cpus.commit.committedInstType_0::SimdMisc            0      0.00%     70.41% # Class of committed instruction
system.switch_cpus.commit.committedInstType_0::SimdMult            0      0.00%     70.41% # Class of committed instruction
system.switch_cpus.commit.committedInstType_0::SimdMultAcc            0      0.00%     70.41% # Class of committed instruction
system.switch_cpus.commit.committedInstType_0::SimdShift            0      0.00%     70.41% # Class of committed instruction
system.switch_cpus.commit.committedInstType_0::SimdShiftAcc            0      0.00%     70.41% # Class of committed instruction
system.switch_cpus.commit.committedInstType_0::SimdDiv            0      0.00%     70.41% # Class of committed instruction
system.switch_cpus.commit.committedInstType_0::SimdSqrt            0      0.00%     70.41% # Class of committed instruction
system.switch_cpus.commit.committedInstType_0::SimdFloatAdd            0      0.00%     70.41% # Class of committed instruction
system.switch_cpus.commit.committedInstType_0::SimdFloatAlu            0      0.00%     70.41% # Class of committed instruction
system.switch_cpus.commit.committedInstType_0::SimdFloatCmp            0      0.00%     70.41% # Class of committed instruction
system.switch_cpus.commit.committedInstType_0::SimdFloatCvt            0      0.00%     70.41% # Class of committed instruction
system.switch_cpus.commit.committedInstType_0::SimdFloatDiv            0      0.00%     70.41% # Class of committed instruction
system.switch_cpus.commit.committedInstType_0::SimdFloatMisc            0      0.00%     70.41% # Class of committed instruction
system.switch_cpus.commit.committedInstType_0::SimdFloatMult            0      0.00%     70.41% # Class of committed instruction
system.switch_cpus.commit.committedInstType_0::SimdFloatMultAcc            0      0.00%     70.41% # Class of committed instruction
system.switch_cpus.commit.committedInstType_0::SimdFloatSqrt            0      0.00%     70.41% # Class of committed instruction
system.switch_cpus.commit.committedInstType_0::SimdReduceAdd            0      0.00%     70.41% # Class of committed instruction
system.switch_cpus.commit.committedInstType_0::SimdReduceAlu            0      0.00%     70.41% # Class of committed instruction
system.switch_cpus.commit.committedInstType_0::SimdReduceCmp            0      0.00%     70.41% # Class of committed instruction
system.switch_cpus.commit.committedInstType_0::SimdFloatReduceAdd            0      0.00%     70.41% # Class of committed instruction
system.switch_cpus.commit.committedInstType_0::SimdFloatReduceCmp            0      0.00%     70.41% # Class of committed instruction
system.switch_cpus.commit.committedInstType_0::SimdAes            0      0.00%     70.41% # Class of committed instruction
system.switch_cpus.commit.committedInstType_0::SimdAesMix            0      0.00%     70.41% # Class of committed instruction
system.switch_cpus.commit.committedInstType_0::SimdSha1Hash            0      0.00%     70.41% # Class of committed instruction
system.switch_cpus.commit.committedInstType_0::SimdSha1Hash2            0      0.00%     70.41% # Class of committed instruction
system.switch_cpus.commit.committedInstType_0::SimdSha256Hash            0      0.00%     70.41% # Class of committed instruction
system.switch_cpus.commit.committedInstType_0::SimdSha256Hash2            0      0.00%     70.41% # Class of committed instruction
system.switch_cpus.commit.committedInstType_0::SimdShaSigma2            0      0.00%     70.41% # Class of committed instruction
system.switch_cpus.commit.committedInstType_0::SimdShaSigma3            0      0.00%     70.41% # Class of committed instruction
system.switch_cpus.commit.committedInstType_0::SimdPredAlu            0      0.00%     70.41% # Class of committed instruction
system.switch_cpus.commit.committedInstType_0::MemRead    101170667     20.68%     91.08% # Class of committed instruction
system.switch_cpus.commit.committedInstType_0::MemWrite     43618500      8.91%    100.00% # Class of committed instruction
system.switch_cpus.commit.committedInstType_0::FloatMemRead         6164      0.00%    100.00% # Class of committed instruction
system.switch_cpus.commit.committedInstType_0::FloatMemWrite         6194      0.00%    100.00% # Class of committed instruction
system.switch_cpus.commit.committedInstType_0::IprAccess            0      0.00%    100.00% # Class of committed instruction
system.switch_cpus.commit.committedInstType_0::InstPrefetch            0      0.00%    100.00% # Class of committed instruction
system.switch_cpus.commit.committedInstType_0::total    489297897                       # Class of committed instruction
system.switch_cpus.commit.commitEligibleSamples     37293818                       # number cycles where commit BW limit reached
system.switch_cpus.decode.idleCycles         10669613                       # Number of cycles decode is idle
system.switch_cpus.decode.blockedCycles      28584498                       # Number of cycles decode is blocked
system.switch_cpus.decode.runCycles          90619225                       # Number of cycles decode is running
system.switch_cpus.decode.unblockCycles       9934949                       # Number of cycles decode is unblocking
system.switch_cpus.decode.squashCycles        2516782                       # Number of cycles decode is squashing
system.switch_cpus.decode.branchResolved     33874458                       # Number of times decode resolved a  branch
system.switch_cpus.decode.branchMispred         12220                       # Number of times decode detected a branch misprediction
system.switch_cpus.decode.decodedInsts      686928172                       # Number of instructions handled by decode
system.switch_cpus.decode.squashedInsts         53298                       # Number of squashed instructions handled by decode
system.switch_cpus.dtb.rdAccesses           126963178                       # TLB accesses on read requests
system.switch_cpus.dtb.wrAccesses            47231519                       # TLB accesses on write requests
system.switch_cpus.dtb.rdMisses                    29                       # TLB misses on read requests
system.switch_cpus.dtb.wrMisses                     4                       # TLB misses on write requests
system.switch_cpus.dtb.walker.power_state.pwrStateResidencyTicks::UNDEFINED 19790306150400                       # Cumulative time (in ticks) in various power states
system.switch_cpus.fetch.icacheStallCycles      2313620                       # Number of cycles fetch is stalled on an Icache miss
system.switch_cpus.fetch.insts              369060016                       # Number of instructions fetch has processed
system.switch_cpus.fetch.branches            62408860                       # Number of branches that fetch encountered
system.switch_cpus.fetch.predictedBranches     35715806                       # Number of branches that fetch has predicted taken
system.switch_cpus.fetch.cycles             137482732                       # Number of cycles fetch has run and was not squashing or blocked
system.switch_cpus.fetch.squashCycles         5057436                       # Number of cycles fetch has spent squashing
system.switch_cpus.fetch.cacheLines          53659845                       # Number of cache lines fetched
system.switch_cpus.fetch.icacheSquashes          2859                       # Number of outstanding Icache misses that were squashed
system.switch_cpus.fetch.nisnDist::samples    142325070                       # Number of instructions fetched each cycle (Total)
system.switch_cpus.fetch.nisnDist::mean      5.073436                       # Number of instructions fetched each cycle (Total)
system.switch_cpus.fetch.nisnDist::stdev     3.137761                       # Number of instructions fetched each cycle (Total)
system.switch_cpus.fetch.nisnDist::underflows            0      0.00%      0.00% # Number of instructions fetched each cycle (Total)
system.switch_cpus.fetch.nisnDist::0         21995760     15.45%     15.45% # Number of instructions fetched each cycle (Total)
system.switch_cpus.fetch.nisnDist::1         10286994      7.23%     22.68% # Number of instructions fetched each cycle (Total)
system.switch_cpus.fetch.nisnDist::2          4711634      3.31%     25.99% # Number of instructions fetched each cycle (Total)
system.switch_cpus.fetch.nisnDist::3         12621819      8.87%     34.86% # Number of instructions fetched each cycle (Total)
system.switch_cpus.fetch.nisnDist::4          6487320      4.56%     39.42% # Number of instructions fetched each cycle (Total)
system.switch_cpus.fetch.nisnDist::5          8877839      6.24%     45.66% # Number of instructions fetched each cycle (Total)
system.switch_cpus.fetch.nisnDist::6          7505433      5.27%     50.93% # Number of instructions fetched each cycle (Total)
system.switch_cpus.fetch.nisnDist::7          9575881      6.73%     57.66% # Number of instructions fetched each cycle (Total)
system.switch_cpus.fetch.nisnDist::8         60262390     42.34%    100.00% # Number of instructions fetched each cycle (Total)
system.switch_cpus.fetch.nisnDist::overflows            0      0.00%    100.00% # Number of instructions fetched each cycle (Total)
system.switch_cpus.fetch.nisnDist::min_value            0                       # Number of instructions fetched each cycle (Total)
system.switch_cpus.fetch.nisnDist::max_value            8                       # Number of instructions fetched each cycle (Total)
system.switch_cpus.fetch.nisnDist::total    142325070                       # Number of instructions fetched each cycle (Total)
system.switch_cpus.fetch.branchRate          0.437878                       # Number of branch fetches per cycle
system.switch_cpus.fetch.rate                2.589426                       # Number of inst fetches per cycle
system.switch_cpus.itb.rdAccesses                   0                       # TLB accesses on read requests
system.switch_cpus.itb.wrAccesses            53659845                       # TLB accesses on write requests
system.switch_cpus.itb.rdMisses                     0                       # TLB misses on read requests
system.switch_cpus.itb.wrMisses                    32                       # TLB misses on write requests
system.switch_cpus.itb.walker.power_state.pwrStateResidencyTicks::UNDEFINED 19790306150400                       # Cumulative time (in ticks) in various power states
system.switch_cpus.lsq0.forwLoads            14340946                       # Number of loads that had data forwarded from stores
system.switch_cpus.lsq0.squashedLoads        37817620                       # Number of loads squashed
system.switch_cpus.lsq0.ignoredResponses         4122                       # Number of memory responses ignored because the instruction is squashed
system.switch_cpus.lsq0.memOrderViolation        41514                       # Number of memory ordering violations
system.switch_cpus.lsq0.squashedStores       11963987                       # Number of stores squashed
system.switch_cpus.lsq0.rescheduledLoads           14                       # Number of loads that were rescheduled
system.switch_cpus.lsq0.blockedByCache              1                       # Number of times an access to memory failed due to the cache being blocked
system.switch_cpus.power_state.pwrStateResidencyTicks::OFF  47461095396                       # Cumulative time (in ticks) in various power states
system.switch_cpus.rename.squashCycles        2516782                       # Number of cycles rename is squashing
system.switch_cpus.rename.idleCycles         15398610                       # Number of cycles rename is idle
system.switch_cpus.rename.blockCycles        18200272                       # Number of cycles rename is blocking
system.switch_cpus.rename.serializeStallCycles            0                       # count of cycles rename stalledfor serializing inst
system.switch_cpus.rename.runCycles          95555621                       # Number of cycles rename is running
system.switch_cpus.rename.unblockCycles      10653777                       # Number of cycles rename is unblocking
system.switch_cpus.rename.renamedInsts      671111124                       # Number of instructions processed by rename
system.switch_cpus.rename.ROBFullEvents         13924                       # Number of times rename has blocked due to ROB full
system.switch_cpus.rename.IQFullEvents        1420166                       # Number of times rename has blocked due to IQ full
system.switch_cpus.rename.LQFullEvents        7510107                       # Number of times rename has blocked due to LQ full
system.switch_cpus.rename.SQFullEvents          34086                       # Number of times rename has blocked due to SQ full
system.switch_cpus.rename.renamedOperands    847437732                       # Number of destination operands rename has renamed
system.switch_cpus.rename.lookups          1630595768                       # Number of register rename lookups that rename has made
system.switch_cpus.rename.intLookups       1001212946                       # Number of integer rename lookups
system.switch_cpus.rename.fpLookups              6530                       # Number of floating rename lookups
system.switch_cpus.rename.committedMaps     613590443                       # Number of HB maps that are committed
system.switch_cpus.rename.undoneMaps        233847161                       # Number of HB maps that are undone due to squashing
system.switch_cpus.rename.serializing               0                       # count of serializing insts renamed
system.switch_cpus.rename.tempSerializing            0                       # count of temporary serializing insts renamed
system.switch_cpus.rename.skidInsts          33637750                       # count of insts added to the skid buffer
system.switch_cpus.rob.reads                728399188                       # The number of ROB reads
system.switch_cpus.rob.writes              1308982945                       # The number of ROB writes
system.switch_cpus.thread0.numInsts         250000003                       # Number of Instructions committed
system.switch_cpus.thread0.numOps           489297897                       # Number of Ops committed
system.switch_cpus.thread0.numMemRefs               0                       # Number of Memory References
system.voltage_domain.voltage                       1                       # Voltage in Volts

---------- End Simulation Statistics   ----------
