
---------- Begin Simulation Statistics ----------
final_tick                               19790307191358                       # Number of ticks from beginning of simulation (restored from checkpoints and never reset)
host_inst_rate                                 127127                       # Simulator instruction rate (inst/s)
host_mem_usage                               16968284                       # Number of bytes of host memory used
host_op_rate                                   248812                       # Simulator op (including micro ops) rate (op/s)
host_seconds                                  1966.54                       # Real time elapsed on the host
host_tick_rate                               24134887                       # Simulator tick rate (ticks/s)
sim_freq                                 1000000000000                       # Frequency of simulated ticks
sim_insts                                   250000014                       # Number of instructions simulated
sim_ops                                     489297839                       # Number of ops (including micro ops) simulated
sim_seconds                                  0.047462                       # Number of seconds simulated
sim_ticks                                 47462142681                       # Number of ticks simulated
system.cpu.committedInsts                          14                       # Number of instructions committed
system.cpu.committedOps                            24                       # Number of ops (including micro ops) committed
system.cpu.idle_fraction                            0                       # Percentage of idle cycles
system.cpu.l2bus.snoop_filter.hit_multi_requests            2                       # Number of requests hitting in the snoop filter with multiple (>1) holders of the requested data.
system.cpu.l2bus.snoop_filter.hit_multi_snoops            0                       # Number of snoops hitting in the snoop filter with multiple (>1) holders of the requested data.
system.cpu.l2bus.snoop_filter.hit_single_requests         6274                       # Number of requests hitting in the snoop filter with a single holder of the requested data.
system.cpu.l2bus.snoop_filter.hit_single_snoops            0                       # Number of snoops hitting in the snoop filter with a single holder of the requested data.
system.cpu.l2bus.snoop_filter.tot_requests        13359                       # Total number of requests made to the snoop filter.
system.cpu.l2bus.snoop_filter.tot_snoops            0                       # Total number of snoops made to the snoop filter.
system.cpu.mmucache.mmubus.snoop_filter.hit_multi_requests            0                       # Number of requests hitting in the snoop filter with multiple (>1) holders of the requested data.
system.cpu.mmucache.mmubus.snoop_filter.hit_multi_snoops            0                       # Number of snoops hitting in the snoop filter with multiple (>1) holders of the requested data.
system.cpu.mmucache.mmubus.snoop_filter.hit_single_requests            0                       # Number of requests hitting in the snoop filter with a single holder of the requested data.
system.cpu.mmucache.mmubus.snoop_filter.hit_single_snoops            0                       # Number of snoops hitting in the snoop filter with a single holder of the requested data.
system.cpu.mmucache.mmubus.snoop_filter.tot_requests            0                       # Total number of requests made to the snoop filter.
system.cpu.mmucache.mmubus.snoop_filter.tot_snoops            0                       # Total number of snoops made to the snoop filter.
system.cpu.not_idle_fraction                        1                       # Percentage of non-idle cycles
system.cpu.numCycles                               32                       # number of cpu cycles simulated
system.cpu.numWorkItemsCompleted                    0                       # number of work items this cpu completed
system.cpu.numWorkItemsStarted                      0                       # number of work items this cpu started
system.cpu.num_busy_cycles                         32                       # Number of busy cycles
system.cpu.num_cc_register_writes                   3                       # number of times the CC registers were written
system.cpu.num_conditional_control_insts            0                       # number of instructions that are conditional controls
system.cpu.num_fp_alu_accesses                      0                       # Number of float alu accesses
system.cpu.num_fp_insts                             0                       # number of float instructions
system.cpu.num_fp_register_reads                    0                       # number of times the floating registers were read
system.cpu.num_fp_register_writes                   0                       # number of times the floating registers were written
system.cpu.num_func_calls                           0                       # number of times a function call or return occured
system.cpu.num_idle_cycles                          0                       # Number of idle cycles
system.cpu.num_int_alu_accesses                    24                       # Number of integer alu accesses
system.cpu.num_int_insts                           24                       # number of integer instructions
system.cpu.num_int_register_reads                  52                       # number of times the integer registers were read
system.cpu.num_int_register_writes                 25                       # number of times the integer registers were written
system.cpu.num_load_insts                           2                       # Number of load instructions
system.cpu.num_mem_refs                             4                       # number of memory refs
system.cpu.num_store_insts                          2                       # Number of store instructions
system.cpu.num_vec_alu_accesses                     0                       # Number of vector alu accesses
system.cpu.num_vec_insts                            0                       # number of vector instructions
system.cpu.num_vec_register_reads                   0                       # number of times the vector registers were read
system.cpu.num_vec_register_writes                  0                       # number of times the vector registers were written
system.cpu.op_class::No_OpClass                     0      0.00%      0.00% # Class of executed instruction
system.cpu.op_class::IntAlu                        17     70.83%     70.83% # Class of executed instruction
system.cpu.op_class::IntMult                        3     12.50%     83.33% # Class of executed instruction
system.cpu.op_class::IntDiv                         0      0.00%     83.33% # Class of executed instruction
system.cpu.op_class::FloatAdd                       0      0.00%     83.33% # Class of executed instruction
system.cpu.op_class::FloatCmp                       0      0.00%     83.33% # Class of executed instruction
system.cpu.op_class::FloatCvt                       0      0.00%     83.33% # Class of executed instruction
system.cpu.op_class::FloatMult                      0      0.00%     83.33% # Class of executed instruction
system.cpu.op_class::FloatMultAcc                   0      0.00%     83.33% # Class of executed instruction
system.cpu.op_class::FloatDiv                       0      0.00%     83.33% # Class of executed instruction
system.cpu.op_class::FloatMisc                      0      0.00%     83.33% # Class of executed instruction
system.cpu.op_class::FloatSqrt                      0      0.00%     83.33% # Class of executed instruction
system.cpu.op_class::SimdAdd                        0      0.00%     83.33% # Class of executed instruction
system.cpu.op_class::SimdAddAcc                     0      0.00%     83.33% # Class of executed instruction
system.cpu.op_class::SimdAlu                        0      0.00%     83.33% # Class of executed instruction
system.cpu.op_class::SimdCmp                        0      0.00%     83.33% # Class of executed instruction
system.cpu.op_class::SimdCvt                        0      0.00%     83.33% # Class of executed instruction
system.cpu.op_class::SimdMisc                       0      0.00%     83.33% # Class of executed instruction
system.cpu.op_class::SimdMult                       0      0.00%     83.33% # Class of executed instruction
system.cpu.op_class::SimdMultAcc                    0      0.00%     83.33% # Class of executed instruction
system.cpu.op_class::SimdShift                      0      0.00%     83.33% # Class of executed instruction
system.cpu.op_class::SimdShiftAcc                   0      0.00%     83.33% # Class of executed instruction
system.cpu.op_class::SimdDiv                        0      0.00%     83.33% # Class of executed instruction
system.cpu.op_class::SimdSqrt                       0      0.00%     83.33% # Class of executed instruction
system.cpu.op_class::SimdFloatAdd                   0      0.00%     83.33% # Class of executed instruction
system.cpu.op_class::SimdFloatAlu                   0      0.00%     83.33% # Class of executed instruction
system.cpu.op_class::SimdFloatCmp                   0      0.00%     83.33% # Class of executed instruction
system.cpu.op_class::SimdFloatCvt                   0      0.00%     83.33% # Class of executed instruction
system.cpu.op_class::SimdFloatDiv                   0      0.00%     83.33% # Class of executed instruction
system.cpu.op_class::SimdFloatMisc                  0      0.00%     83.33% # Class of executed instruction
system.cpu.op_class::SimdFloatMult                  0      0.00%     83.33% # Class of executed instruction
system.cpu.op_class::SimdFloatMultAcc               0      0.00%     83.33% # Class of executed instruction
system.cpu.op_class::SimdFloatSqrt                  0      0.00%     83.33% # Class of executed instruction
system.cpu.op_class::SimdReduceAdd                  0      0.00%     83.33% # Class of executed instruction
system.cpu.op_class::SimdReduceAlu                  0      0.00%     83.33% # Class of executed instruction
system.cpu.op_class::SimdReduceCmp                  0      0.00%     83.33% # Class of executed instruction
system.cpu.op_class::SimdFloatReduceAdd             0      0.00%     83.33% # Class of executed instruction
system.cpu.op_class::SimdFloatReduceCmp             0      0.00%     83.33% # Class of executed instruction
system.cpu.op_class::SimdAes                        0      0.00%     83.33% # Class of executed instruction
system.cpu.op_class::SimdAesMix                     0      0.00%     83.33% # Class of executed instruction
system.cpu.op_class::SimdSha1Hash                   0      0.00%     83.33% # Class of executed instruction
system.cpu.op_class::SimdSha1Hash2                  0      0.00%     83.33% # Class of executed instruction
system.cpu.op_class::SimdSha256Hash                 0      0.00%     83.33% # Class of executed instruction
system.cpu.op_class::SimdSha256Hash2                0      0.00%     83.33% # Class of executed instruction
system.cpu.op_class::SimdShaSigma2                  0      0.00%     83.33% # Class of executed instruction
system.cpu.op_class::SimdShaSigma3                  0      0.00%     83.33% # Class of executed instruction
system.cpu.op_class::SimdPredAlu                    0      0.00%     83.33% # Class of executed instruction
system.cpu.op_class::MemRead                        2      8.33%     91.67% # Class of executed instruction
system.cpu.op_class::MemWrite                       2      8.33%    100.00% # Class of executed instruction
system.cpu.op_class::FloatMemRead                   0      0.00%    100.00% # Class of executed instruction
system.cpu.op_class::FloatMemWrite                  0      0.00%    100.00% # Class of executed instruction
system.cpu.op_class::IprAccess                      0      0.00%    100.00% # Class of executed instruction
system.cpu.op_class::InstPrefetch                   0      0.00%    100.00% # Class of executed instruction
system.cpu.op_class::total                         24                       # Class of executed instruction
system.cpu.workload.numSyscalls                     0                       # Number of system calls
system.l3bus.snoop_filter.hit_multi_requests            0                       # Number of requests hitting in the snoop filter with multiple (>1) holders of the requested data.
system.l3bus.snoop_filter.hit_multi_snoops            0                       # Number of snoops hitting in the snoop filter with multiple (>1) holders of the requested data.
system.l3bus.snoop_filter.hit_single_requests            0                       # Number of requests hitting in the snoop filter with a single holder of the requested data.
system.l3bus.snoop_filter.hit_single_snoops            0                       # Number of snoops hitting in the snoop filter with a single holder of the requested data.
system.l3bus.snoop_filter.tot_requests           1693                       # Total number of requests made to the snoop filter.
system.l3bus.snoop_filter.tot_snoops                0                       # Total number of snoops made to the snoop filter.
system.membus.snoop_filter.hit_multi_requests            0                       # Number of requests hitting in the snoop filter with multiple (>1) holders of the requested data.
system.membus.snoop_filter.hit_multi_snoops            0                       # Number of snoops hitting in the snoop filter with multiple (>1) holders of the requested data.
system.membus.snoop_filter.hit_single_requests            0                       # Number of requests hitting in the snoop filter with a single holder of the requested data.
system.membus.snoop_filter.hit_single_snoops            0                       # Number of snoops hitting in the snoop filter with a single holder of the requested data.
system.membus.snoop_filter.tot_requests          1693                       # Total number of requests made to the snoop filter.
system.membus.snoop_filter.tot_snoops               0                       # Total number of snoops made to the snoop filter.
system.switch_cpus.cc_regfile_reads         236351952                       # number of cc regfile reads
system.switch_cpus.cc_regfile_writes        244403230                       # number of cc regfile writes
system.switch_cpus.committedInsts           250000000                       # Number of Instructions Simulated
system.switch_cpus.committedOps             489297815                       # Number of Ops (including micro ops) Simulated
system.switch_cpus.cpi                       0.570116                       # CPI: Cycles Per Instruction
system.switch_cpus.cpi_total                 0.570116                       # CPI: Total CPI of All Threads
system.switch_cpus.fp_regfile_reads              6330                       # number of floating regfile reads
system.switch_cpus.fp_regfile_writes             6395                       # number of floating regfile writes
system.switch_cpus.idleCycles                  202196                       # Total number of cycles that the CPU has spent unscheduled due to idling
system.switch_cpus.iew.branchMispredicts      3090250                       # Number of branch mispredicts detected at execute
system.switch_cpus.iew.exec_branches         46285153                       # Number of branches executed
system.switch_cpus.iew.exec_nop                     0                       # number of nop insts executed
system.switch_cpus.iew.exec_rate             4.129385                       # Inst execution rate
system.switch_cpus.iew.exec_refs            174194411                       # number of memory reference insts executed
system.switch_cpus.iew.exec_stores           47231496                       # Number of stores executed
system.switch_cpus.iew.exec_swp                     0                       # number of swp insts executed
system.switch_cpus.iew.iewBlockCycles        18219027                       # Number of cycles IEW is blocking
system.switch_cpus.iew.iewDispLoadInsts     138994422                       # Number of dispatched load instructions
system.switch_cpus.iew.iewDispNonSpecInsts            0                       # Number of dispatched non-speculative instructions
system.switch_cpus.iew.iewDispSquashedInsts        13303                       # Number of squashed instructions skipped by dispatch
system.switch_cpus.iew.iewDispStoreInsts     55588608                       # Number of dispatched store instructions
system.switch_cpus.iew.iewDispatchedInsts    644101178                       # Number of instructions dispatched to IQ
system.switch_cpus.iew.iewExecLoadInsts     126962915                       # Number of load instructions executed
system.switch_cpus.iew.iewExecSquashedInsts      8552951                       # Number of squashed instructions skipped in execute
system.switch_cpus.iew.iewExecutedInsts     588556860                       # Number of executed instructions
system.switch_cpus.iew.iewIQFullEvents             25                       # Number of times the IQ has become full, causing a stall
system.switch_cpus.iew.iewIdleCycles                0                       # Number of cycles IEW is idle
system.switch_cpus.iew.iewLSQFullEvents          2965                       # Number of times the LSQ has become full, causing a stall
system.switch_cpus.iew.iewSquashCycles        2516760                       # Number of cycles IEW is squashing
system.switch_cpus.iew.iewUnblockCycles          3000                       # Number of cycles IEW is unblocking
system.switch_cpus.iew.memOrderViolationEvents        41513                       # Number of memory order violations
system.switch_cpus.iew.predictedNotTakenIncorrect      1522018                       # Number of branches that were predicted not taken incorrectly
system.switch_cpus.iew.predictedTakenIncorrect      1568232                       # Number of branches that were predicted taken incorrectly
system.switch_cpus.iew.wb_consumers         658618879                       # num instructions consuming a value
system.switch_cpus.iew.wb_count             584484708                       # cumulative count of insts written-back
system.switch_cpus.iew.wb_fanout             0.668697                       # average fanout of values written-back
system.switch_cpus.iew.wb_producers         440416526                       # num instructions producing a value
system.switch_cpus.iew.wb_rate               4.100815                       # insts written-back per cycle
system.switch_cpus.iew.wb_sent              587266295                       # cumulative count of insts sent to commit
system.switch_cpus.int_regfile_reads        852606822                       # number of integer regfile reads
system.switch_cpus.int_regfile_writes       494136932                       # number of integer regfile writes
system.switch_cpus.ipc                       1.754030                       # IPC: Instructions Per Cycle
system.switch_cpus.ipc_total                 1.754030                       # IPC: Total IPC of All Threads
system.switch_cpus.iq.FU_type_0::No_OpClass      1212477      0.20%      0.20% # Type of FU issued
system.switch_cpus.iq.FU_type_0::IntAlu     413970067     69.33%     69.53% # Type of FU issued
system.switch_cpus.iq.FU_type_0::IntMult      3578807      0.60%     70.13% # Type of FU issued
system.switch_cpus.iq.FU_type_0::IntDiv         24111      0.00%     70.14% # Type of FU issued
system.switch_cpus.iq.FU_type_0::FloatAdd            0      0.00%     70.14% # Type of FU issued
system.switch_cpus.iq.FU_type_0::FloatCmp            0      0.00%     70.14% # Type of FU issued
system.switch_cpus.iq.FU_type_0::FloatCvt            0      0.00%     70.14% # Type of FU issued
system.switch_cpus.iq.FU_type_0::FloatMult            0      0.00%     70.14% # Type of FU issued
system.switch_cpus.iq.FU_type_0::FloatMultAcc            0      0.00%     70.14% # Type of FU issued
system.switch_cpus.iq.FU_type_0::FloatDiv            0      0.00%     70.14% # Type of FU issued
system.switch_cpus.iq.FU_type_0::FloatMisc            0      0.00%     70.14% # Type of FU issued
system.switch_cpus.iq.FU_type_0::FloatSqrt            0      0.00%     70.14% # Type of FU issued
system.switch_cpus.iq.FU_type_0::SimdAdd            0      0.00%     70.14% # Type of FU issued
system.switch_cpus.iq.FU_type_0::SimdAddAcc            0      0.00%     70.14% # Type of FU issued
system.switch_cpus.iq.FU_type_0::SimdAlu            0      0.00%     70.14% # Type of FU issued
system.switch_cpus.iq.FU_type_0::SimdCmp            0      0.00%     70.14% # Type of FU issued
system.switch_cpus.iq.FU_type_0::SimdCvt            0      0.00%     70.14% # Type of FU issued
system.switch_cpus.iq.FU_type_0::SimdMisc            0      0.00%     70.14% # Type of FU issued
system.switch_cpus.iq.FU_type_0::SimdMult            0      0.00%     70.14% # Type of FU issued
system.switch_cpus.iq.FU_type_0::SimdMultAcc            0      0.00%     70.14% # Type of FU issued
system.switch_cpus.iq.FU_type_0::SimdShift            0      0.00%     70.14% # Type of FU issued
system.switch_cpus.iq.FU_type_0::SimdShiftAcc            0      0.00%     70.14% # Type of FU issued
system.switch_cpus.iq.FU_type_0::SimdDiv            0      0.00%     70.14% # Type of FU issued
system.switch_cpus.iq.FU_type_0::SimdSqrt            0      0.00%     70.14% # Type of FU issued
system.switch_cpus.iq.FU_type_0::SimdFloatAdd            0      0.00%     70.14% # Type of FU issued
system.switch_cpus.iq.FU_type_0::SimdFloatAlu            0      0.00%     70.14% # Type of FU issued
system.switch_cpus.iq.FU_type_0::SimdFloatCmp            0      0.00%     70.14% # Type of FU issued
system.switch_cpus.iq.FU_type_0::SimdFloatCvt            0      0.00%     70.14% # Type of FU issued
system.switch_cpus.iq.FU_type_0::SimdFloatDiv            0      0.00%     70.14% # Type of FU issued
system.switch_cpus.iq.FU_type_0::SimdFloatMisc            0      0.00%     70.14% # Type of FU issued
system.switch_cpus.iq.FU_type_0::SimdFloatMult            0      0.00%     70.14% # Type of FU issued
system.switch_cpus.iq.FU_type_0::SimdFloatMultAcc            0      0.00%     70.14% # Type of FU issued
system.switch_cpus.iq.FU_type_0::SimdFloatSqrt            0      0.00%     70.14% # Type of FU issued
system.switch_cpus.iq.FU_type_0::SimdReduceAdd            0      0.00%     70.14% # Type of FU issued
system.switch_cpus.iq.FU_type_0::SimdReduceAlu            0      0.00%     70.14% # Type of FU issued
system.switch_cpus.iq.FU_type_0::SimdReduceCmp            0      0.00%     70.14% # Type of FU issued
system.switch_cpus.iq.FU_type_0::SimdFloatReduceAdd            0      0.00%     70.14% # Type of FU issued
system.switch_cpus.iq.FU_type_0::SimdFloatReduceCmp            0      0.00%     70.14% # Type of FU issued
system.switch_cpus.iq.FU_type_0::SimdAes            0      0.00%     70.14% # Type of FU issued
system.switch_cpus.iq.FU_type_0::SimdAesMix            0      0.00%     70.14% # Type of FU issued
system.switch_cpus.iq.FU_type_0::SimdSha1Hash            0      0.00%     70.14% # Type of FU issued
system.switch_cpus.iq.FU_type_0::SimdSha1Hash2            0      0.00%     70.14% # Type of FU issued
system.switch_cpus.iq.FU_type_0::SimdSha256Hash            0      0.00%     70.14% # Type of FU issued
system.switch_cpus.iq.FU_type_0::SimdSha256Hash2            0      0.00%     70.14% # Type of FU issued
system.switch_cpus.iq.FU_type_0::SimdShaSigma2            0      0.00%     70.14% # Type of FU issued
system.switch_cpus.iq.FU_type_0::SimdShaSigma3            0      0.00%     70.14% # Type of FU issued
system.switch_cpus.iq.FU_type_0::SimdPredAlu            0      0.00%     70.14% # Type of FU issued
system.switch_cpus.iq.FU_type_0::MemRead    130055860     21.78%     91.92% # Type of FU issued
system.switch_cpus.iq.FU_type_0::MemWrite     48255753      8.08%    100.00% # Type of FU issued
system.switch_cpus.iq.FU_type_0::FloatMemRead         6402      0.00%    100.00% # Type of FU issued
system.switch_cpus.iq.FU_type_0::FloatMemWrite         6340      0.00%    100.00% # Type of FU issued
system.switch_cpus.iq.FU_type_0::IprAccess            0      0.00%    100.00% # Type of FU issued
system.switch_cpus.iq.FU_type_0::InstPrefetch            0      0.00%    100.00% # Type of FU issued
system.switch_cpus.iq.FU_type_0::total      597109817                       # Type of FU issued
system.switch_cpus.iq.fp_alu_accesses           18302                       # Number of floating point alu accesses
system.switch_cpus.iq.fp_inst_queue_reads        31049                       # Number of floating instruction queue reads
system.switch_cpus.iq.fp_inst_queue_wakeup_accesses        12646                       # Number of floating instruction queue wakeup accesses
system.switch_cpus.iq.fp_inst_queue_writes        13390                       # Number of floating instruction queue writes
system.switch_cpus.iq.fu_busy_cnt            18179290                       # FU busy when requested
system.switch_cpus.iq.fu_busy_rate           0.030445                       # FU busy rate (busy events/executed inst)
system.switch_cpus.iq.fu_full::No_OpClass            0      0.00%      0.00% # attempts to use FU when none available
system.switch_cpus.iq.fu_full::IntAlu        11325213     62.30%     62.30% # attempts to use FU when none available
system.switch_cpus.iq.fu_full::IntMult              0      0.00%     62.30% # attempts to use FU when none available
system.switch_cpus.iq.fu_full::IntDiv               0      0.00%     62.30% # attempts to use FU when none available
system.switch_cpus.iq.fu_full::FloatAdd             0      0.00%     62.30% # attempts to use FU when none available
system.switch_cpus.iq.fu_full::FloatCmp             0      0.00%     62.30% # attempts to use FU when none available
system.switch_cpus.iq.fu_full::FloatCvt             0      0.00%     62.30% # attempts to use FU when none available
system.switch_cpus.iq.fu_full::FloatMult            0      0.00%     62.30% # attempts to use FU when none available
system.switch_cpus.iq.fu_full::FloatMultAcc            0      0.00%     62.30% # attempts to use FU when none available
system.switch_cpus.iq.fu_full::FloatDiv             0      0.00%     62.30% # attempts to use FU when none available
system.switch_cpus.iq.fu_full::FloatMisc            0      0.00%     62.30% # attempts to use FU when none available
system.switch_cpus.iq.fu_full::FloatSqrt            0      0.00%     62.30% # attempts to use FU when none available
system.switch_cpus.iq.fu_full::SimdAdd              0      0.00%     62.30% # attempts to use FU when none available
system.switch_cpus.iq.fu_full::SimdAddAcc            0      0.00%     62.30% # attempts to use FU when none available
system.switch_cpus.iq.fu_full::SimdAlu              0      0.00%     62.30% # attempts to use FU when none available
system.switch_cpus.iq.fu_full::SimdCmp              0      0.00%     62.30% # attempts to use FU when none available
system.switch_cpus.iq.fu_full::SimdCvt              0      0.00%     62.30% # attempts to use FU when none available
system.switch_cpus.iq.fu_full::SimdMisc             0      0.00%     62.30% # attempts to use FU when none available
system.switch_cpus.iq.fu_full::SimdMult             0      0.00%     62.30% # attempts to use FU when none available
system.switch_cpus.iq.fu_full::SimdMultAcc            0      0.00%     62.30% # attempts to use FU when none available
system.switch_cpus.iq.fu_full::SimdShift            0      0.00%     62.30% # attempts to use FU when none available
system.switch_cpus.iq.fu_full::SimdShiftAcc            0      0.00%     62.30% # attempts to use FU when none available
system.switch_cpus.iq.fu_full::SimdDiv              0      0.00%     62.30% # attempts to use FU when none available
system.switch_cpus.iq.fu_full::SimdSqrt             0      0.00%     62.30% # attempts to use FU when none available
system.switch_cpus.iq.fu_full::SimdFloatAdd            0      0.00%     62.30% # attempts to use FU when none available
system.switch_cpus.iq.fu_full::SimdFloatAlu            0      0.00%     62.30% # attempts to use FU when none available
system.switch_cpus.iq.fu_full::SimdFloatCmp            0      0.00%     62.30% # attempts to use FU when none available
system.switch_cpus.iq.fu_full::SimdFloatCvt            0      0.00%     62.30% # attempts to use FU when none available
system.switch_cpus.iq.fu_full::SimdFloatDiv            0      0.00%     62.30% # attempts to use FU when none available
system.switch_cpus.iq.fu_full::SimdFloatMisc            0      0.00%     62.30% # attempts to use FU when none available
system.switch_cpus.iq.fu_full::SimdFloatMult            0      0.00%     62.30% # attempts to use FU when none available
system.switch_cpus.iq.fu_full::SimdFloatMultAcc            0      0.00%     62.30% # attempts to use FU when none available
system.switch_cpus.iq.fu_full::SimdFloatSqrt            0      0.00%     62.30% # attempts to use FU when none available
system.switch_cpus.iq.fu_full::SimdReduceAdd            0      0.00%     62.30% # attempts to use FU when none available
system.switch_cpus.iq.fu_full::SimdReduceAlu            0      0.00%     62.30% # attempts to use FU when none available
system.switch_cpus.iq.fu_full::SimdReduceCmp            0      0.00%     62.30% # attempts to use FU when none available
system.switch_cpus.iq.fu_full::SimdFloatReduceAdd            0      0.00%     62.30% # attempts to use FU when none available
system.switch_cpus.iq.fu_full::SimdFloatReduceCmp            0      0.00%     62.30% # attempts to use FU when none available
system.switch_cpus.iq.fu_full::SimdAes              0      0.00%     62.30% # attempts to use FU when none available
system.switch_cpus.iq.fu_full::SimdAesMix            0      0.00%     62.30% # attempts to use FU when none available
system.switch_cpus.iq.fu_full::SimdSha1Hash            0      0.00%     62.30% # attempts to use FU when none available
system.switch_cpus.iq.fu_full::SimdSha1Hash2            0      0.00%     62.30% # attempts to use FU when none available
system.switch_cpus.iq.fu_full::SimdSha256Hash            0      0.00%     62.30% # attempts to use FU when none available
system.switch_cpus.iq.fu_full::SimdSha256Hash2            0      0.00%     62.30% # attempts to use FU when none available
system.switch_cpus.iq.fu_full::SimdShaSigma2            0      0.00%     62.30% # attempts to use FU when none available
system.switch_cpus.iq.fu_full::SimdShaSigma3            0      0.00%     62.30% # attempts to use FU when none available
system.switch_cpus.iq.fu_full::SimdPredAlu            0      0.00%     62.30% # attempts to use FU when none available
system.switch_cpus.iq.fu_full::MemRead        5673307     31.21%     93.50% # attempts to use FU when none available
system.switch_cpus.iq.fu_full::MemWrite       1175210      6.46%     99.97% # attempts to use FU when none available
system.switch_cpus.iq.fu_full::FloatMemRead         2368      0.01%     99.98% # attempts to use FU when none available
system.switch_cpus.iq.fu_full::FloatMemWrite         3192      0.02%    100.00% # attempts to use FU when none available
system.switch_cpus.iq.fu_full::IprAccess            0      0.00%    100.00% # attempts to use FU when none available
system.switch_cpus.iq.fu_full::InstPrefetch            0      0.00%    100.00% # attempts to use FU when none available
system.switch_cpus.iq.int_alu_accesses      614058328                       # Number of integer alu accesses
system.switch_cpus.iq.int_inst_queue_reads   1356442056                       # Number of integer instruction queue reads
system.switch_cpus.iq.int_inst_queue_wakeup_accesses    584472062                       # Number of integer instruction queue wakeup accesses
system.switch_cpus.iq.int_inst_queue_writes    798931600                       # Number of integer instruction queue writes
system.switch_cpus.iq.iqInstsAdded          644101178                       # Number of instructions added to the IQ (excludes non-spec)
system.switch_cpus.iq.iqInstsIssued         597109817                       # Number of instructions issued
system.switch_cpus.iq.iqSquashedInstsExamined    154803303                       # Number of squashed instructions iterated over during squash; mainly for profiling
system.switch_cpus.iq.iqSquashedInstsIssued      1747458                       # Number of squashed instructions issued
system.switch_cpus.iq.iqSquashedOperandsExamined    202698653                       # Number of squashed operands that are examined and possibly removed from graph
system.switch_cpus.iq.issued_per_cycle::samples    142326729                       # Number of insts issued each cycle
system.switch_cpus.iq.issued_per_cycle::mean     4.195346                       # Number of insts issued each cycle
system.switch_cpus.iq.issued_per_cycle::stdev     2.863873                       # Number of insts issued each cycle
system.switch_cpus.iq.issued_per_cycle::underflows            0      0.00%      0.00% # Number of insts issued each cycle
system.switch_cpus.iq.issued_per_cycle::0     32372016     22.74%     22.74% # Number of insts issued each cycle
system.switch_cpus.iq.issued_per_cycle::1      4837219      3.40%     26.14% # Number of insts issued each cycle
system.switch_cpus.iq.issued_per_cycle::2      5978809      4.20%     30.34% # Number of insts issued each cycle
system.switch_cpus.iq.issued_per_cycle::3      9476318      6.66%     37.00% # Number of insts issued each cycle
system.switch_cpus.iq.issued_per_cycle::4     13781211      9.68%     46.69% # Number of insts issued each cycle
system.switch_cpus.iq.issued_per_cycle::5     15216578     10.69%     57.38% # Number of insts issued each cycle
system.switch_cpus.iq.issued_per_cycle::6     22250753     15.63%     73.01% # Number of insts issued each cycle
system.switch_cpus.iq.issued_per_cycle::7     20136826     14.15%     87.16% # Number of insts issued each cycle
system.switch_cpus.iq.issued_per_cycle::8     18276999     12.84%    100.00% # Number of insts issued each cycle
system.switch_cpus.iq.issued_per_cycle::overflows            0      0.00%    100.00% # Number of insts issued each cycle
system.switch_cpus.iq.issued_per_cycle::min_value            0                       # Number of insts issued each cycle
system.switch_cpus.iq.issued_per_cycle::max_value            8                       # Number of insts issued each cycle
system.switch_cpus.iq.issued_per_cycle::total    142326729                       # Number of insts issued each cycle
system.switch_cpus.iq.rate                   4.189394                       # Inst issue rate
system.switch_cpus.iq.vec_alu_accesses              0                       # Number of vector alu accesses
system.switch_cpus.iq.vec_inst_queue_reads            0                       # Number of vector instruction queue reads
system.switch_cpus.iq.vec_inst_queue_wakeup_accesses            0                       # Number of vector instruction queue wakeup accesses
system.switch_cpus.iq.vec_inst_queue_writes            0                       # Number of vector instruction queue writes
system.switch_cpus.memDep0.conflictingLoads     28353064                       # Number of conflicting loads.
system.switch_cpus.memDep0.conflictingStores     17073938                       # Number of conflicting stores.
system.switch_cpus.memDep0.insertedLoads    138994422                       # Number of loads inserted to the mem dependence unit.
system.switch_cpus.memDep0.insertedStores     55588608                       # Number of stores inserted to the mem dependence unit.
system.switch_cpus.misc_regfile_reads       282417646                       # number of misc regfile reads
system.switch_cpus.misc_regfile_writes              1                       # number of misc regfile writes
system.switch_cpus.numCycles                142528925                       # number of cpu cycles simulated
system.switch_cpus.numWorkItemsCompleted            0                       # number of work items this cpu completed
system.switch_cpus.numWorkItemsStarted              0                       # number of work items this cpu started
system.switch_cpus.timesIdled                    1175                       # Number of times that the entire CPU went into an idle state and unscheduled itself
system.clk_domain.clock                           333                       # Clock period in ticks
system.cpu.dcache.demand_hits::.cpu.data            1                       # number of demand (read+write) hits
system.cpu.dcache.demand_hits::.switch_cpus.data    136552157                       # number of demand (read+write) hits
system.cpu.dcache.demand_hits::total        136552158                       # number of demand (read+write) hits
system.cpu.dcache.overall_hits::.cpu.data            1                       # number of overall hits
system.cpu.dcache.overall_hits::.switch_cpus.data    156245900                       # number of overall hits
system.cpu.dcache.overall_hits::total       156245901                       # number of overall hits
system.cpu.dcache.demand_misses::.cpu.data            3                       # number of demand (read+write) misses
system.cpu.dcache.demand_misses::.switch_cpus.data          559                       # number of demand (read+write) misses
system.cpu.dcache.demand_misses::total            562                       # number of demand (read+write) misses
system.cpu.dcache.overall_misses::.cpu.data            3                       # number of overall misses
system.cpu.dcache.overall_misses::.switch_cpus.data          628                       # number of overall misses
system.cpu.dcache.overall_misses::total           631                       # number of overall misses
system.cpu.dcache.demand_miss_latency::.switch_cpus.data     40902390                       # number of demand (read+write) miss cycles
system.cpu.dcache.demand_miss_latency::total     40902390                       # number of demand (read+write) miss cycles
system.cpu.dcache.overall_miss_latency::.switch_cpus.data     40902390                       # number of overall miss cycles
system.cpu.dcache.overall_miss_latency::total     40902390                       # number of overall miss cycles
system.cpu.dcache.demand_accesses::.cpu.data            4                       # number of demand (read+write) accesses
system.cpu.dcache.demand_accesses::.switch_cpus.data    136552716                       # number of demand (read+write) accesses
system.cpu.dcache.demand_accesses::total    136552720                       # number of demand (read+write) accesses
system.cpu.dcache.overall_accesses::.cpu.data            4                       # number of overall (read+write) accesses
system.cpu.dcache.overall_accesses::.switch_cpus.data    156246528                       # number of overall (read+write) accesses
system.cpu.dcache.overall_accesses::total    156246532                       # number of overall (read+write) accesses
system.cpu.dcache.demand_miss_rate::.cpu.data     0.750000                       # miss rate for demand accesses
system.cpu.dcache.demand_miss_rate::.switch_cpus.data     0.000004                       # miss rate for demand accesses
system.cpu.dcache.demand_miss_rate::total     0.000004                       # miss rate for demand accesses
system.cpu.dcache.overall_miss_rate::.cpu.data     0.750000                       # miss rate for overall accesses
system.cpu.dcache.overall_miss_rate::.switch_cpus.data     0.000004                       # miss rate for overall accesses
system.cpu.dcache.overall_miss_rate::total     0.000004                       # miss rate for overall accesses
system.cpu.dcache.demand_avg_miss_latency::.switch_cpus.data 73170.644007                       # average overall miss latency
system.cpu.dcache.demand_avg_miss_latency::total 72780.053381                       # average overall miss latency
system.cpu.dcache.overall_avg_miss_latency::.switch_cpus.data 65131.194268                       # average overall miss latency
system.cpu.dcache.overall_avg_miss_latency::total 64821.537242                       # average overall miss latency
system.cpu.dcache.blocked_cycles::no_mshrs            0                       # number of cycles access was blocked
system.cpu.dcache.blocked_cycles::no_targets          186                       # number of cycles access was blocked
system.cpu.dcache.blocked::no_mshrs                 0                       # number of cycles access was blocked
system.cpu.dcache.blocked::no_targets               1                       # number of cycles access was blocked
system.cpu.dcache.avg_blocked_cycles::no_mshrs          nan                       # average number of cycles each access was blocked
system.cpu.dcache.avg_blocked_cycles::no_targets          186                       # average number of cycles each access was blocked
system.cpu.dcache.demand_mshr_hits::.switch_cpus.data          316                       # number of demand (read+write) MSHR hits
system.cpu.dcache.demand_mshr_hits::total          316                       # number of demand (read+write) MSHR hits
system.cpu.dcache.overall_mshr_hits::.switch_cpus.data          316                       # number of overall MSHR hits
system.cpu.dcache.overall_mshr_hits::total          316                       # number of overall MSHR hits
system.cpu.dcache.demand_mshr_misses::.switch_cpus.data          243                       # number of demand (read+write) MSHR misses
system.cpu.dcache.demand_mshr_misses::total          243                       # number of demand (read+write) MSHR misses
system.cpu.dcache.overall_mshr_misses::.switch_cpus.data          296                       # number of overall MSHR misses
system.cpu.dcache.overall_mshr_misses::total          296                       # number of overall MSHR misses
system.cpu.dcache.demand_mshr_miss_latency::.switch_cpus.data     18862452                       # number of demand (read+write) MSHR miss cycles
system.cpu.dcache.demand_mshr_miss_latency::total     18862452                       # number of demand (read+write) MSHR miss cycles
system.cpu.dcache.overall_mshr_miss_latency::.switch_cpus.data     24136839                       # number of overall MSHR miss cycles
system.cpu.dcache.overall_mshr_miss_latency::total     24136839                       # number of overall MSHR miss cycles
system.cpu.dcache.demand_mshr_miss_rate::.switch_cpus.data     0.000002                       # mshr miss rate for demand accesses
system.cpu.dcache.demand_mshr_miss_rate::total     0.000002                       # mshr miss rate for demand accesses
system.cpu.dcache.overall_mshr_miss_rate::.switch_cpus.data     0.000002                       # mshr miss rate for overall accesses
system.cpu.dcache.overall_mshr_miss_rate::total     0.000002                       # mshr miss rate for overall accesses
system.cpu.dcache.demand_avg_mshr_miss_latency::.switch_cpus.data 77623.259259                       # average overall mshr miss latency
system.cpu.dcache.demand_avg_mshr_miss_latency::total 77623.259259                       # average overall mshr miss latency
system.cpu.dcache.overall_avg_mshr_miss_latency::.switch_cpus.data 81543.375000                       # average overall mshr miss latency
system.cpu.dcache.overall_avg_mshr_miss_latency::total 81543.375000                       # average overall mshr miss latency
system.cpu.dcache.replacements                      0                       # number of replacements
system.cpu.dcache.ReadReq_hits::.switch_cpus.data     92927539                       # number of ReadReq hits
system.cpu.dcache.ReadReq_hits::total        92927539                       # number of ReadReq hits
system.cpu.dcache.ReadReq_misses::.cpu.data            2                       # number of ReadReq misses
system.cpu.dcache.ReadReq_misses::.switch_cpus.data          468                       # number of ReadReq misses
system.cpu.dcache.ReadReq_misses::total           470                       # number of ReadReq misses
system.cpu.dcache.ReadReq_miss_latency::.switch_cpus.data     34553079                       # number of ReadReq miss cycles
system.cpu.dcache.ReadReq_miss_latency::total     34553079                       # number of ReadReq miss cycles
system.cpu.dcache.ReadReq_accesses::.cpu.data            2                       # number of ReadReq accesses(hits+misses)
system.cpu.dcache.ReadReq_accesses::.switch_cpus.data     92928007                       # number of ReadReq accesses(hits+misses)
system.cpu.dcache.ReadReq_accesses::total     92928009                       # number of ReadReq accesses(hits+misses)
system.cpu.dcache.ReadReq_miss_rate::.cpu.data            1                       # miss rate for ReadReq accesses
system.cpu.dcache.ReadReq_miss_rate::.switch_cpus.data     0.000005                       # miss rate for ReadReq accesses
system.cpu.dcache.ReadReq_miss_rate::total     0.000005                       # miss rate for ReadReq accesses
system.cpu.dcache.ReadReq_avg_miss_latency::.switch_cpus.data 73831.365385                       # average ReadReq miss latency
system.cpu.dcache.ReadReq_avg_miss_latency::total 73517.189362                       # average ReadReq miss latency
system.cpu.dcache.ReadReq_mshr_hits::.switch_cpus.data          315                       # number of ReadReq MSHR hits
system.cpu.dcache.ReadReq_mshr_hits::total          315                       # number of ReadReq MSHR hits
system.cpu.dcache.ReadReq_mshr_misses::.switch_cpus.data          153                       # number of ReadReq MSHR misses
system.cpu.dcache.ReadReq_mshr_misses::total          153                       # number of ReadReq MSHR misses
system.cpu.dcache.ReadReq_mshr_miss_latency::.switch_cpus.data     12554766                       # number of ReadReq MSHR miss cycles
system.cpu.dcache.ReadReq_mshr_miss_latency::total     12554766                       # number of ReadReq MSHR miss cycles
system.cpu.dcache.ReadReq_mshr_miss_rate::.switch_cpus.data     0.000002                       # mshr miss rate for ReadReq accesses
system.cpu.dcache.ReadReq_mshr_miss_rate::total     0.000002                       # mshr miss rate for ReadReq accesses
system.cpu.dcache.ReadReq_avg_mshr_miss_latency::.switch_cpus.data 82057.294118                       # average ReadReq mshr miss latency
system.cpu.dcache.ReadReq_avg_mshr_miss_latency::total 82057.294118                       # average ReadReq mshr miss latency
system.cpu.dcache.WriteReq_hits::.cpu.data            1                       # number of WriteReq hits
system.cpu.dcache.WriteReq_hits::.switch_cpus.data     43624618                       # number of WriteReq hits
system.cpu.dcache.WriteReq_hits::total       43624619                       # number of WriteReq hits
system.cpu.dcache.WriteReq_misses::.cpu.data            1                       # number of WriteReq misses
system.cpu.dcache.WriteReq_misses::.switch_cpus.data           91                       # number of WriteReq misses
system.cpu.dcache.WriteReq_misses::total           92                       # number of WriteReq misses
system.cpu.dcache.WriteReq_miss_latency::.switch_cpus.data      6349311                       # number of WriteReq miss cycles
system.cpu.dcache.WriteReq_miss_latency::total      6349311                       # number of WriteReq miss cycles
system.cpu.dcache.WriteReq_accesses::.cpu.data            2                       # number of WriteReq accesses(hits+misses)
system.cpu.dcache.WriteReq_accesses::.switch_cpus.data     43624709                       # number of WriteReq accesses(hits+misses)
system.cpu.dcache.WriteReq_accesses::total     43624711                       # number of WriteReq accesses(hits+misses)
system.cpu.dcache.WriteReq_miss_rate::.cpu.data     0.500000                       # miss rate for WriteReq accesses
system.cpu.dcache.WriteReq_miss_rate::.switch_cpus.data     0.000002                       # miss rate for WriteReq accesses
system.cpu.dcache.WriteReq_miss_rate::total     0.000002                       # miss rate for WriteReq accesses
system.cpu.dcache.WriteReq_avg_miss_latency::.switch_cpus.data 69772.648352                       # average WriteReq miss latency
system.cpu.dcache.WriteReq_avg_miss_latency::total 69014.250000                       # average WriteReq miss latency
system.cpu.dcache.WriteReq_mshr_hits::.switch_cpus.data            1                       # number of WriteReq MSHR hits
system.cpu.dcache.WriteReq_mshr_hits::total            1                       # number of WriteReq MSHR hits
system.cpu.dcache.WriteReq_mshr_misses::.switch_cpus.data           90                       # number of WriteReq MSHR misses
system.cpu.dcache.WriteReq_mshr_misses::total           90                       # number of WriteReq MSHR misses
system.cpu.dcache.WriteReq_mshr_miss_latency::.switch_cpus.data      6307686                       # number of WriteReq MSHR miss cycles
system.cpu.dcache.WriteReq_mshr_miss_latency::total      6307686                       # number of WriteReq MSHR miss cycles
system.cpu.dcache.WriteReq_mshr_miss_rate::.switch_cpus.data     0.000002                       # mshr miss rate for WriteReq accesses
system.cpu.dcache.WriteReq_mshr_miss_rate::total     0.000002                       # mshr miss rate for WriteReq accesses
system.cpu.dcache.WriteReq_avg_mshr_miss_latency::.switch_cpus.data 70085.400000                       # average WriteReq mshr miss latency
system.cpu.dcache.WriteReq_avg_mshr_miss_latency::total 70085.400000                       # average WriteReq mshr miss latency
system.cpu.dcache.SoftPFReq_hits::.switch_cpus.data     19693743                       # number of SoftPFReq hits
system.cpu.dcache.SoftPFReq_hits::total      19693743                       # number of SoftPFReq hits
system.cpu.dcache.SoftPFReq_misses::.switch_cpus.data           69                       # number of SoftPFReq misses
system.cpu.dcache.SoftPFReq_misses::total           69                       # number of SoftPFReq misses
system.cpu.dcache.SoftPFReq_accesses::.switch_cpus.data     19693812                       # number of SoftPFReq accesses(hits+misses)
system.cpu.dcache.SoftPFReq_accesses::total     19693812                       # number of SoftPFReq accesses(hits+misses)
system.cpu.dcache.SoftPFReq_miss_rate::.switch_cpus.data     0.000004                       # miss rate for SoftPFReq accesses
system.cpu.dcache.SoftPFReq_miss_rate::total     0.000004                       # miss rate for SoftPFReq accesses
system.cpu.dcache.SoftPFReq_mshr_misses::.switch_cpus.data           53                       # number of SoftPFReq MSHR misses
system.cpu.dcache.SoftPFReq_mshr_misses::total           53                       # number of SoftPFReq MSHR misses
system.cpu.dcache.SoftPFReq_mshr_miss_latency::.switch_cpus.data      5274387                       # number of SoftPFReq MSHR miss cycles
system.cpu.dcache.SoftPFReq_mshr_miss_latency::total      5274387                       # number of SoftPFReq MSHR miss cycles
system.cpu.dcache.SoftPFReq_mshr_miss_rate::.switch_cpus.data     0.000003                       # mshr miss rate for SoftPFReq accesses
system.cpu.dcache.SoftPFReq_mshr_miss_rate::total     0.000003                       # mshr miss rate for SoftPFReq accesses
system.cpu.dcache.SoftPFReq_avg_mshr_miss_latency::.switch_cpus.data 99516.735849                       # average SoftPFReq mshr miss latency
system.cpu.dcache.SoftPFReq_avg_mshr_miss_latency::total 99516.735849                       # average SoftPFReq mshr miss latency
system.cpu.dcache.power_state.pwrStateResidencyTicks::UNDEFINED 19790307191358                       # Cumulative time (in ticks) in various power states
system.cpu.dcache.tags.tagsinuse           238.212150                       # Cycle average of tags in use
system.cpu.dcache.tags.total_refs           156246200                       # Total number of references to valid blocks.
system.cpu.dcache.tags.sampled_refs               299                       # Sample count of references to valid blocks.
system.cpu.dcache.tags.avg_refs          522562.541806                       # Average number of references to valid blocks.
system.cpu.dcache.tags.warmup_cycle      19742845049010                       # Cycle when the warmup percentage was hit.
system.cpu.dcache.tags.occ_blocks::.cpu.data     3.000000                       # Average occupied blocks per requestor
system.cpu.dcache.tags.occ_blocks::.switch_cpus.data   235.212150                       # Average occupied blocks per requestor
system.cpu.dcache.tags.occ_percent::.cpu.data     0.005859                       # Average percentage of cache occupancy
system.cpu.dcache.tags.occ_percent::.switch_cpus.data     0.459399                       # Average percentage of cache occupancy
system.cpu.dcache.tags.occ_percent::total     0.465258                       # Average percentage of cache occupancy
system.cpu.dcache.tags.occ_task_id_blocks::1024          299                       # Occupied blocks per task id
system.cpu.dcache.tags.age_task_id_blocks_1024::4          299                       # Occupied blocks per task id
system.cpu.dcache.tags.occ_task_id_percent::1024     0.583984                       # Percentage of cache occupancy per task id
system.cpu.dcache.tags.tag_accesses        1249972555                       # Number of tag accesses
system.cpu.dcache.tags.data_accesses       1249972555                       # Number of data accesses
system.cpu.dcache.tags.power_state.pwrStateResidencyTicks::UNDEFINED 19790307191358                       # Cumulative time (in ticks) in various power states
system.cpu.dtb.rdAccesses                           2                       # TLB accesses on read requests
system.cpu.dtb.wrAccesses                           2                       # TLB accesses on write requests
system.cpu.dtb.rdMisses                             0                       # TLB misses on read requests
system.cpu.dtb.wrMisses                             0                       # TLB misses on write requests
system.cpu.dtb.walker.power_state.pwrStateResidencyTicks::UNDEFINED 19790307191358                       # Cumulative time (in ticks) in various power states
system.cpu.icache.demand_hits::.cpu.inst           20                       # number of demand (read+write) hits
system.cpu.icache.demand_hits::.switch_cpus.inst     53652110                       # number of demand (read+write) hits
system.cpu.icache.demand_hits::total         53652130                       # number of demand (read+write) hits
system.cpu.icache.overall_hits::.cpu.inst           20                       # number of overall hits
system.cpu.icache.overall_hits::.switch_cpus.inst     53652110                       # number of overall hits
system.cpu.icache.overall_hits::total        53652130                       # number of overall hits
system.cpu.icache.demand_misses::.cpu.inst            2                       # number of demand (read+write) misses
system.cpu.icache.demand_misses::.switch_cpus.inst         7750                       # number of demand (read+write) misses
system.cpu.icache.demand_misses::total           7752                       # number of demand (read+write) misses
system.cpu.icache.overall_misses::.cpu.inst            2                       # number of overall misses
system.cpu.icache.overall_misses::.switch_cpus.inst         7750                       # number of overall misses
system.cpu.icache.overall_misses::total          7752                       # number of overall misses
system.cpu.icache.demand_miss_latency::.switch_cpus.inst    167831667                       # number of demand (read+write) miss cycles
system.cpu.icache.demand_miss_latency::total    167831667                       # number of demand (read+write) miss cycles
system.cpu.icache.overall_miss_latency::.switch_cpus.inst    167831667                       # number of overall miss cycles
system.cpu.icache.overall_miss_latency::total    167831667                       # number of overall miss cycles
system.cpu.icache.demand_accesses::.cpu.inst           22                       # number of demand (read+write) accesses
system.cpu.icache.demand_accesses::.switch_cpus.inst     53659860                       # number of demand (read+write) accesses
system.cpu.icache.demand_accesses::total     53659882                       # number of demand (read+write) accesses
system.cpu.icache.overall_accesses::.cpu.inst           22                       # number of overall (read+write) accesses
system.cpu.icache.overall_accesses::.switch_cpus.inst     53659860                       # number of overall (read+write) accesses
system.cpu.icache.overall_accesses::total     53659882                       # number of overall (read+write) accesses
system.cpu.icache.demand_miss_rate::.cpu.inst     0.090909                       # miss rate for demand accesses
system.cpu.icache.demand_miss_rate::.switch_cpus.inst     0.000144                       # miss rate for demand accesses
system.cpu.icache.demand_miss_rate::total     0.000144                       # miss rate for demand accesses
system.cpu.icache.overall_miss_rate::.cpu.inst     0.090909                       # miss rate for overall accesses
system.cpu.icache.overall_miss_rate::.switch_cpus.inst     0.000144                       # miss rate for overall accesses
system.cpu.icache.overall_miss_rate::total     0.000144                       # miss rate for overall accesses
system.cpu.icache.demand_avg_miss_latency::.switch_cpus.inst 21655.698968                       # average overall miss latency
system.cpu.icache.demand_avg_miss_latency::total 21650.111842                       # average overall miss latency
system.cpu.icache.overall_avg_miss_latency::.switch_cpus.inst 21655.698968                       # average overall miss latency
system.cpu.icache.overall_avg_miss_latency::total 21650.111842                       # average overall miss latency
system.cpu.icache.blocked_cycles::no_mshrs            0                       # number of cycles access was blocked
system.cpu.icache.blocked_cycles::no_targets            0                       # number of cycles access was blocked
system.cpu.icache.blocked::no_mshrs                 0                       # number of cycles access was blocked
system.cpu.icache.blocked::no_targets               0                       # number of cycles access was blocked
system.cpu.icache.avg_blocked_cycles::no_mshrs          nan                       # average number of cycles each access was blocked
system.cpu.icache.avg_blocked_cycles::no_targets          nan                       # average number of cycles each access was blocked
system.cpu.icache.writebacks::.writebacks         6274                       # number of writebacks
system.cpu.icache.writebacks::total              6274                       # number of writebacks
system.cpu.icache.demand_mshr_hits::.switch_cpus.inst          966                       # number of demand (read+write) MSHR hits
system.cpu.icache.demand_mshr_hits::total          966                       # number of demand (read+write) MSHR hits
system.cpu.icache.overall_mshr_hits::.switch_cpus.inst          966                       # number of overall MSHR hits
system.cpu.icache.overall_mshr_hits::total          966                       # number of overall MSHR hits
system.cpu.icache.demand_mshr_misses::.switch_cpus.inst         6784                       # number of demand (read+write) MSHR misses
system.cpu.icache.demand_mshr_misses::total         6784                       # number of demand (read+write) MSHR misses
system.cpu.icache.overall_mshr_misses::.switch_cpus.inst         6784                       # number of overall MSHR misses
system.cpu.icache.overall_mshr_misses::total         6784                       # number of overall MSHR misses
system.cpu.icache.demand_mshr_miss_latency::.switch_cpus.inst    129882654                       # number of demand (read+write) MSHR miss cycles
system.cpu.icache.demand_mshr_miss_latency::total    129882654                       # number of demand (read+write) MSHR miss cycles
system.cpu.icache.overall_mshr_miss_latency::.switch_cpus.inst    129882654                       # number of overall MSHR miss cycles
system.cpu.icache.overall_mshr_miss_latency::total    129882654                       # number of overall MSHR miss cycles
system.cpu.icache.demand_mshr_miss_rate::.switch_cpus.inst     0.000126                       # mshr miss rate for demand accesses
system.cpu.icache.demand_mshr_miss_rate::total     0.000126                       # mshr miss rate for demand accesses
system.cpu.icache.overall_mshr_miss_rate::.switch_cpus.inst     0.000126                       # mshr miss rate for overall accesses
system.cpu.icache.overall_mshr_miss_rate::total     0.000126                       # mshr miss rate for overall accesses
system.cpu.icache.demand_avg_mshr_miss_latency::.switch_cpus.inst 19145.438384                       # average overall mshr miss latency
system.cpu.icache.demand_avg_mshr_miss_latency::total 19145.438384                       # average overall mshr miss latency
system.cpu.icache.overall_avg_mshr_miss_latency::.switch_cpus.inst 19145.438384                       # average overall mshr miss latency
system.cpu.icache.overall_avg_mshr_miss_latency::total 19145.438384                       # average overall mshr miss latency
system.cpu.icache.replacements                   6274                       # number of replacements
system.cpu.icache.ReadReq_hits::.cpu.inst           20                       # number of ReadReq hits
system.cpu.icache.ReadReq_hits::.switch_cpus.inst     53652110                       # number of ReadReq hits
system.cpu.icache.ReadReq_hits::total        53652130                       # number of ReadReq hits
system.cpu.icache.ReadReq_misses::.cpu.inst            2                       # number of ReadReq misses
system.cpu.icache.ReadReq_misses::.switch_cpus.inst         7750                       # number of ReadReq misses
system.cpu.icache.ReadReq_misses::total          7752                       # number of ReadReq misses
system.cpu.icache.ReadReq_miss_latency::.switch_cpus.inst    167831667                       # number of ReadReq miss cycles
system.cpu.icache.ReadReq_miss_latency::total    167831667                       # number of ReadReq miss cycles
system.cpu.icache.ReadReq_accesses::.cpu.inst           22                       # number of ReadReq accesses(hits+misses)
system.cpu.icache.ReadReq_accesses::.switch_cpus.inst     53659860                       # number of ReadReq accesses(hits+misses)
system.cpu.icache.ReadReq_accesses::total     53659882                       # number of ReadReq accesses(hits+misses)
system.cpu.icache.ReadReq_miss_rate::.cpu.inst     0.090909                       # miss rate for ReadReq accesses
system.cpu.icache.ReadReq_miss_rate::.switch_cpus.inst     0.000144                       # miss rate for ReadReq accesses
system.cpu.icache.ReadReq_miss_rate::total     0.000144                       # miss rate for ReadReq accesses
system.cpu.icache.ReadReq_avg_miss_latency::.switch_cpus.inst 21655.698968                       # average ReadReq miss latency
system.cpu.icache.ReadReq_avg_miss_latency::total 21650.111842                       # average ReadReq miss latency
system.cpu.icache.ReadReq_mshr_hits::.switch_cpus.inst          966                       # number of ReadReq MSHR hits
system.cpu.icache.ReadReq_mshr_hits::total          966                       # number of ReadReq MSHR hits
system.cpu.icache.ReadReq_mshr_misses::.switch_cpus.inst         6784                       # number of ReadReq MSHR misses
system.cpu.icache.ReadReq_mshr_misses::total         6784                       # number of ReadReq MSHR misses
system.cpu.icache.ReadReq_mshr_miss_latency::.switch_cpus.inst    129882654                       # number of ReadReq MSHR miss cycles
system.cpu.icache.ReadReq_mshr_miss_latency::total    129882654                       # number of ReadReq MSHR miss cycles
system.cpu.icache.ReadReq_mshr_miss_rate::.switch_cpus.inst     0.000126                       # mshr miss rate for ReadReq accesses
system.cpu.icache.ReadReq_mshr_miss_rate::total     0.000126                       # mshr miss rate for ReadReq accesses
system.cpu.icache.ReadReq_avg_mshr_miss_latency::.switch_cpus.inst 19145.438384                       # average ReadReq mshr miss latency
system.cpu.icache.ReadReq_avg_mshr_miss_latency::total 19145.438384                       # average ReadReq mshr miss latency
system.cpu.icache.power_state.pwrStateResidencyTicks::UNDEFINED 19790307191358                       # Cumulative time (in ticks) in various power states
system.cpu.icache.tags.tagsinuse           321.584316                       # Cycle average of tags in use
system.cpu.icache.tags.total_refs            53658916                       # Total number of references to valid blocks.
system.cpu.icache.tags.sampled_refs              6786                       # Sample count of references to valid blocks.
system.cpu.icache.tags.avg_refs           7907.296788                       # Average number of references to valid blocks.
system.cpu.icache.tags.warmup_cycle      19742845049010                       # Cycle when the warmup percentage was hit.
system.cpu.icache.tags.occ_blocks::.cpu.inst     1.145850                       # Average occupied blocks per requestor
system.cpu.icache.tags.occ_blocks::.switch_cpus.inst   320.438466                       # Average occupied blocks per requestor
system.cpu.icache.tags.occ_percent::.cpu.inst     0.002238                       # Average percentage of cache occupancy
system.cpu.icache.tags.occ_percent::.switch_cpus.inst     0.625856                       # Average percentage of cache occupancy
system.cpu.icache.tags.occ_percent::total     0.628094                       # Average percentage of cache occupancy
system.cpu.icache.tags.occ_task_id_blocks::1024          512                       # Occupied blocks per task id
system.cpu.icache.tags.age_task_id_blocks_1024::3          512                       # Occupied blocks per task id
system.cpu.icache.tags.occ_task_id_percent::1024            1                       # Percentage of cache occupancy per task id
system.cpu.icache.tags.tag_accesses         429285842                       # Number of tag accesses
system.cpu.icache.tags.data_accesses        429285842                       # Number of data accesses
system.cpu.icache.tags.power_state.pwrStateResidencyTicks::UNDEFINED 19790307191358                       # Cumulative time (in ticks) in various power states
system.cpu.interrupts.clk_domain.clock           5328                       # Clock period in ticks
system.cpu.itb.rdAccesses                           0                       # TLB accesses on read requests
system.cpu.itb.wrAccesses                          22                       # TLB accesses on write requests
system.cpu.itb.rdMisses                             0                       # TLB misses on read requests
system.cpu.itb.wrMisses                             0                       # TLB misses on write requests
system.cpu.itb.walker.power_state.pwrStateResidencyTicks::UNDEFINED 19790307191358                       # Cumulative time (in ticks) in various power states
system.cpu.l2bus.trans_dist::ReadResp            6994                       # Transaction distribution
system.cpu.l2bus.trans_dist::WritebackClean         6274                       # Transaction distribution
system.cpu.l2bus.trans_dist::ReadExReq             91                       # Transaction distribution
system.cpu.l2bus.trans_dist::ReadExResp            91                       # Transaction distribution
system.cpu.l2bus.trans_dist::ReadSharedReq         6994                       # Transaction distribution
system.cpu.l2bus.pkt_count_system.cpu.icache.mem_side_port::system.cpu.l2cache.cpu_side_port        19846                       # Packet count per connected requestor and responder (bytes)
system.cpu.l2bus.pkt_count_system.cpu.dcache.mem_side_port::system.cpu.l2cache.cpu_side_port          598                       # Packet count per connected requestor and responder (bytes)
system.cpu.l2bus.pkt_count::total               20444                       # Packet count per connected requestor and responder (bytes)
system.cpu.l2bus.pkt_size_system.cpu.icache.mem_side_port::system.cpu.l2cache.cpu_side_port       835840                       # Cumulative packet size per connected requestor and responder (bytes)
system.cpu.l2bus.pkt_size_system.cpu.dcache.mem_side_port::system.cpu.l2cache.cpu_side_port        19136                       # Cumulative packet size per connected requestor and responder (bytes)
system.cpu.l2bus.pkt_size::total               854976                       # Cumulative packet size per connected requestor and responder (bytes)
system.cpu.l2bus.snoops                             0                       # Total snoops (count)
system.cpu.l2bus.snoopTraffic                       0                       # Total snoop traffic (bytes)
system.cpu.l2bus.snoop_fanout::samples           7085                       # Request fanout histogram
system.cpu.l2bus.snoop_fanout::mean          0.000282                       # Request fanout histogram
system.cpu.l2bus.snoop_fanout::stdev         0.016800                       # Request fanout histogram
system.cpu.l2bus.snoop_fanout::underflows            0      0.00%      0.00% # Request fanout histogram
system.cpu.l2bus.snoop_fanout::0                 7083     99.97%     99.97% # Request fanout histogram
system.cpu.l2bus.snoop_fanout::1                    2      0.03%    100.00% # Request fanout histogram
system.cpu.l2bus.snoop_fanout::2                    0      0.00%    100.00% # Request fanout histogram
system.cpu.l2bus.snoop_fanout::3                    0      0.00%    100.00% # Request fanout histogram
system.cpu.l2bus.snoop_fanout::overflows            0      0.00%    100.00% # Request fanout histogram
system.cpu.l2bus.snoop_fanout::min_value            0                       # Request fanout histogram
system.cpu.l2bus.snoop_fanout::max_value            1                       # Request fanout histogram
system.cpu.l2bus.snoop_fanout::total             7085                       # Request fanout histogram
system.cpu.l2bus.power_state.pwrStateResidencyTicks::UNDEFINED 19790307191358                       # Cumulative time (in ticks) in various power states
system.cpu.l2bus.reqLayer0.occupancy          8625366                       # Layer occupancy (ticks)
system.cpu.l2bus.reqLayer0.utilization            0.0                       # Layer utilization (%)
system.cpu.l2bus.respLayer0.occupancy         6777216                       # Layer occupancy (ticks)
system.cpu.l2bus.respLayer0.utilization           0.0                       # Layer utilization (%)
system.cpu.l2bus.respLayer1.occupancy          295704                       # Layer occupancy (ticks)
system.cpu.l2bus.respLayer1.utilization           0.0                       # Layer utilization (%)
system.cpu.l2cache.demand_hits::.switch_cpus.inst         5390                       # number of demand (read+write) hits
system.cpu.l2cache.demand_hits::.switch_cpus.data            2                       # number of demand (read+write) hits
system.cpu.l2cache.demand_hits::total            5392                       # number of demand (read+write) hits
system.cpu.l2cache.overall_hits::.switch_cpus.inst         5390                       # number of overall hits
system.cpu.l2cache.overall_hits::.switch_cpus.data            2                       # number of overall hits
system.cpu.l2cache.overall_hits::total           5392                       # number of overall hits
system.cpu.l2cache.demand_misses::.cpu.inst            2                       # number of demand (read+write) misses
system.cpu.l2cache.demand_misses::.cpu.data            3                       # number of demand (read+write) misses
system.cpu.l2cache.demand_misses::.switch_cpus.inst         1394                       # number of demand (read+write) misses
system.cpu.l2cache.demand_misses::.switch_cpus.data          294                       # number of demand (read+write) misses
system.cpu.l2cache.demand_misses::total          1693                       # number of demand (read+write) misses
system.cpu.l2cache.overall_misses::.cpu.inst            2                       # number of overall misses
system.cpu.l2cache.overall_misses::.cpu.data            3                       # number of overall misses
system.cpu.l2cache.overall_misses::.switch_cpus.inst         1394                       # number of overall misses
system.cpu.l2cache.overall_misses::.switch_cpus.data          294                       # number of overall misses
system.cpu.l2cache.overall_misses::total         1693                       # number of overall misses
system.cpu.l2cache.demand_miss_latency::.switch_cpus.inst    104983578                       # number of demand (read+write) miss cycles
system.cpu.l2cache.demand_miss_latency::.switch_cpus.data     23923386                       # number of demand (read+write) miss cycles
system.cpu.l2cache.demand_miss_latency::total    128906964                       # number of demand (read+write) miss cycles
system.cpu.l2cache.overall_miss_latency::.switch_cpus.inst    104983578                       # number of overall miss cycles
system.cpu.l2cache.overall_miss_latency::.switch_cpus.data     23923386                       # number of overall miss cycles
system.cpu.l2cache.overall_miss_latency::total    128906964                       # number of overall miss cycles
system.cpu.l2cache.demand_accesses::.cpu.inst            2                       # number of demand (read+write) accesses
system.cpu.l2cache.demand_accesses::.cpu.data            3                       # number of demand (read+write) accesses
system.cpu.l2cache.demand_accesses::.switch_cpus.inst         6784                       # number of demand (read+write) accesses
system.cpu.l2cache.demand_accesses::.switch_cpus.data          296                       # number of demand (read+write) accesses
system.cpu.l2cache.demand_accesses::total         7085                       # number of demand (read+write) accesses
system.cpu.l2cache.overall_accesses::.cpu.inst            2                       # number of overall (read+write) accesses
system.cpu.l2cache.overall_accesses::.cpu.data            3                       # number of overall (read+write) accesses
system.cpu.l2cache.overall_accesses::.switch_cpus.inst         6784                       # number of overall (read+write) accesses
system.cpu.l2cache.overall_accesses::.switch_cpus.data          296                       # number of overall (read+write) accesses
system.cpu.l2cache.overall_accesses::total         7085                       # number of overall (read+write) accesses
system.cpu.l2cache.demand_miss_rate::.cpu.inst            1                       # miss rate for demand accesses
system.cpu.l2cache.demand_miss_rate::.cpu.data            1                       # miss rate for demand accesses
system.cpu.l2cache.demand_miss_rate::.switch_cpus.inst     0.205483                       # miss rate for demand accesses
system.cpu.l2cache.demand_miss_rate::.switch_cpus.data     0.993243                       # miss rate for demand accesses
system.cpu.l2cache.demand_miss_rate::total     0.238956                       # miss rate for demand accesses
system.cpu.l2cache.overall_miss_rate::.cpu.inst            1                       # miss rate for overall accesses
system.cpu.l2cache.overall_miss_rate::.cpu.data            1                       # miss rate for overall accesses
system.cpu.l2cache.overall_miss_rate::.switch_cpus.inst     0.205483                       # miss rate for overall accesses
system.cpu.l2cache.overall_miss_rate::.switch_cpus.data     0.993243                       # miss rate for overall accesses
system.cpu.l2cache.overall_miss_rate::total     0.238956                       # miss rate for overall accesses
system.cpu.l2cache.demand_avg_miss_latency::.switch_cpus.inst 75311.031564                       # average overall miss latency
system.cpu.l2cache.demand_avg_miss_latency::.switch_cpus.data 81372.061224                       # average overall miss latency
system.cpu.l2cache.demand_avg_miss_latency::total 76141.148258                       # average overall miss latency
system.cpu.l2cache.overall_avg_miss_latency::.switch_cpus.inst 75311.031564                       # average overall miss latency
system.cpu.l2cache.overall_avg_miss_latency::.switch_cpus.data 81372.061224                       # average overall miss latency
system.cpu.l2cache.overall_avg_miss_latency::total 76141.148258                       # average overall miss latency
system.cpu.l2cache.blocked_cycles::no_mshrs            0                       # number of cycles access was blocked
system.cpu.l2cache.blocked_cycles::no_targets            0                       # number of cycles access was blocked
system.cpu.l2cache.blocked::no_mshrs                0                       # number of cycles access was blocked
system.cpu.l2cache.blocked::no_targets              0                       # number of cycles access was blocked
system.cpu.l2cache.avg_blocked_cycles::no_mshrs          nan                       # average number of cycles each access was blocked
system.cpu.l2cache.avg_blocked_cycles::no_targets          nan                       # average number of cycles each access was blocked
system.cpu.l2cache.demand_mshr_misses::.switch_cpus.inst         1394                       # number of demand (read+write) MSHR misses
system.cpu.l2cache.demand_mshr_misses::.switch_cpus.data          294                       # number of demand (read+write) MSHR misses
system.cpu.l2cache.demand_mshr_misses::total         1688                       # number of demand (read+write) MSHR misses
system.cpu.l2cache.overall_mshr_misses::.switch_cpus.inst         1394                       # number of overall MSHR misses
system.cpu.l2cache.overall_mshr_misses::.switch_cpus.data          294                       # number of overall MSHR misses
system.cpu.l2cache.overall_mshr_misses::total         1688                       # number of overall MSHR misses
system.cpu.l2cache.demand_mshr_miss_latency::.switch_cpus.inst    104519376                       # number of demand (read+write) MSHR miss cycles
system.cpu.l2cache.demand_mshr_miss_latency::.switch_cpus.data     23825484                       # number of demand (read+write) MSHR miss cycles
system.cpu.l2cache.demand_mshr_miss_latency::total    128344860                       # number of demand (read+write) MSHR miss cycles
system.cpu.l2cache.overall_mshr_miss_latency::.switch_cpus.inst    104519376                       # number of overall MSHR miss cycles
system.cpu.l2cache.overall_mshr_miss_latency::.switch_cpus.data     23825484                       # number of overall MSHR miss cycles
system.cpu.l2cache.overall_mshr_miss_latency::total    128344860                       # number of overall MSHR miss cycles
system.cpu.l2cache.demand_mshr_miss_rate::.switch_cpus.inst     0.205483                       # mshr miss rate for demand accesses
system.cpu.l2cache.demand_mshr_miss_rate::.switch_cpus.data     0.993243                       # mshr miss rate for demand accesses
[...]
system.switch_cpus.commit.numCommittedDist::mean     4.024065                       # Number of insts commited each cycle
system.switch_cpus.commit.numCommittedDist::stdev     3.228886                       # Number of insts commited each cycle
system.switch_cpus.commit.numCommittedDist::underflows            0      0.00%      0.00% # Number of insts commited each cycle
system.switch_cpus.commit.numCommittedDist::0     24249115     19.94%     19.94% # Number of insts commited each cycle
system.switch_cpus.commit.numCommittedDist::1     18586473     15.29%     35.23% # Number of insts commited each cycle
system.switch_cpus.commit.numCommittedDist::2      7137375      5.87%     41.10% # Number of insts commited each cycle
system.switch_cpus.commit.numCommittedDist::3     12687454     10.43%     51.53% # Number of insts commited each cycle
system.switch_cpus.commit.numCommittedDist::4      3828187      3.15%     54.68% # Number of insts commited each cycle
system.switch_cpus.commit.numCommittedDist::5      7037395      5.79%     60.47% # Number of insts commited each cycle
system.switch_cpus.commit.numCommittedDist::6      5889409      4.84%     65.31% # Number of insts commited each cycle
system.switch_cpus.commit.numCommittedDist::7      4881979      4.02%     69.33% # Number of insts commited each cycle
system.switch_cpus.commit.numCommittedDist::8     37295525     30.67%    100.00% # Number of insts commited each cycle
system.switch_cpus.commit.numCommittedDist::overflows            0      0.00%    100.00% # Number of insts commited each cycle
system.switch_cpus.commit.numCommittedDist::min_value            0                       # Number of insts commited each cycle
system.switch_cpus.commit.numCommittedDist::max_value            8                       # Number of insts commited each cycle
system.switch_cpus.commit.numCommittedDist::total    121592912                       # Number of insts commited each cycle
system.switch_cpus.commit.instsCommitted    250000000                       # Number of instructions committed
system.switch_cpus.commit.opsCommitted      489297815                       # Number of ops (including micro ops) committed
system.switch_cpus.commit.memRefs           144801484                       # Number of memory references committed
system.switch_cpus.commit.loads             101176795                       # Number of loads committed
system.switch_cpus.commit.amos                      0                       # Number of atomic instructions committed
system.switch_cpus.commit.membars                   0                       # Number of memory barriers committed
system.switch_cpus.commit.branches           42318774                       # Number of branches committed
system.switch_cpus.commit.vector                    0                       # Number of committed Vector instructions.
system.switch_cpus.commit.floating              12358                       # Number of committed floating point instructions.
system.switch_cpus.commit.integer           486637419                       # Number of committed integer instructions.
system.switch_cpus.commit.functionCalls         81395                       # Number of function calls committed.
system.switch_cpus.commit.committedInstType_0::No_OpClass      1018823      0.21%      0.21% # Class of committed instruction
system.switch_cpus.commit.committedInstType_0::IntAlu    339908720     69.47%     69.68% # Class of committed instruction
system.switch_cpus.commit.committedInstType_0::IntMult      3544708      0.72%     70.40% # Class of committed instruction
system.switch_cpus.commit.committedInstType_0::IntDiv        24080      0.00%     70.41% # Class of committed instruction
system.switch_cpus.commit.committedInstType_0::FloatAdd            0      0.00%     70.41% # Class of committed instruction
system.switch_cpus.commit.committedInstType_0::FloatCmp            0      0.00%     70.41% # Class of committed instruction
system.switch_cpus.commit.committedInstType_0::FloatCvt            0      0.00%     70.41% # Class of committed instruction
system.switch_cpus.commit.committedInstType_0::FloatMult            0      0.00%     70.41% # Class of committed instruction
system.switch_cpus.commit.committedInstType_0::FloatMultAcc            0      0.00%     70.41% # Class of committed instruction
system.switch_cpus.commit.committedInstType_0::FloatDiv            0      0.00%     70.41% # Class of committed instruction
system.switch_cpus.commit.committedInstType_0::FloatMisc            0      0.00%     70.41% # Class of committed instruction
system.switch_cpus.commit.committedInstType_0::FloatSqrt            0      0.00%     70.41% # Class of committed instruction
system.switch_cpus.commit.committedInstType_0::SimdAdd            0      0.00%     70.41% # Class of committed instruction
system.switch_cpus.commit.committedInstType_0::SimdAddAcc            0      0.00%     70.41% # Class of committed instruction
system.switch_cpus.commit.committedInstType_0::SimdAlu            0      0.00%     70.41% # Class of committed instruction
system.switch_cpus.commit.committedInstType_0::SimdCmp            0      0.00%     70.41% # Class of committed instruction
system.switch_cpus.commit.committedInstType_0::SimdCvt            0      0.00%     70.41% # Class of committed instruction
system.switch_cpus.commit.committedInstType_0::SimdMisc            0      0.00%     70.41% # Class of committed instruction
system.switch_cpus.commit.committedInstType_0::SimdMult            0      0.00%     70.41% # Class of committed instruction
system.switch_cpus.commit.committedInstType_0::SimdMultAcc            0      0.00%     70.41% # Class of committed instruction
system.switch_cpus.commit.committedInstType_0::SimdShift            0      0.00%     70.41% # Class of committed instruction
system.switch_cpus.commit.committedInstType_0::SimdShiftAcc            0      0.00%     70.41% # Class of committed instruction
system.switch_cpus.commit.committedInstType_0::SimdDiv            0      0.00%     70.41% # Class of committed instruction
system.switch_cpus.commit.committedInstType_0::SimdSqrt            0      0.00%     70.41% # Class of committed instruction
system.switch_cpus.commit.committedInstType_0::SimdFloatAdd            0      0.00%     70.41% # Class of committed instruction
system.switch_cpus.commit.committedInstType_0::SimdFloatAlu            0      0.00%     70.41% # Class of committed instruction
system.switch_cpus.commit.committedInstType_0::SimdFloatCmp            0      0.00%     70.41% # Class of committed instruction
system.switch_cpus.commit.committedInstType_0::SimdFloatCvt            0      0.00%     70.41% # Class of committed instruction
system.switch_cpus.commit.committedInstType_0::SimdFloatDiv            0      0.00%     70.41% # Class of committed instruction
system.switch_cpus.commit.committedInstType_0::SimdFloatMisc            0      0.00%     70.41% # Class of committed instruction
system.switch_cpus.commit.committedInstType_0::SimdFloatMult            0      0.00%     70.41% # Class of committed instruction
system.switch_cpus.commit.committedInstType_0::SimdFloatMultAcc            0      0.00%     70.41% # Class of committed instruction
system.switch_cpus.commit.committedInstType_0::SimdFloatSqrt            0      0.00%     70.41% # Class of committed instruction
system.switch_cpus.commit.committedInstType_0::SimdReduceAdd            0      0.00%     70.41% # Class of committed instruction
system.switch_cpus.commit.committedInstType_0::SimdReduceAlu            0      0.00%     70.41% # Class of committed instruction
system.switch_cpus.commit.committedInstType_0::SimdReduceCmp            0      0.00%     70.41% # Class of committed instruction
system.switch_cpus.commit.committedInstType_0::SimdFloatReduceAdd            0      0.00%     70.41% # Class of committed instruction
system.switch_cpus.commit.committedInstType_0::SimdFloatReduceCmp            0      0.00%     70.41% # Class of committed instruction
system.switch_cpus.commit.committedInstType_0::SimdAes            0      0.00%     70.41% # Class of committed instruction
system.switch_cpus.commit.committedInstType_0::SimdAesMix            0      0.00%     70.41% # Class of committed instruction
system.switch_cpus.commit.committedInstType_0::SimdSha1Hash            0      0.00%     70.41% # Class of committed instruction
system.switch_cpus.commit.committedInstType_0::SimdSha1Hash2            0      0.00%     70.41% # Class of committed instruction
system.switch_cpus.commit.committedInstType_0::SimdSha256Hash            0      0.00%     70.41% # Class of committed instruction
system.switch_cpus.commit.committedInstType_0::SimdSha256Hash2            0      0.00%     70.41% # Class of committed instruction
system.switch_cpus.commit.committedInstType_0::SimdShaSigma2            0      0.00%     70.41% # Class of committed instruction
system.switch_cpus.commit.committedInstType_0::SimdShaSigma3            0      0.00%     70.41% # Class of committed instruction
system.switch_cpus.commit.committedInstType_0::SimdPredAlu            0      0.00%     70.41% # Class of committed instruction
system.switch_cpus.commit.committedInstType_0::MemRead    101170631     20.68%     91.08% # Class of committed instruction
system.switch_cpus.commit.committedInstType_0::MemWrite     43618495      8.91%    100.00% # Class of committed instruction
system.switch_cpus.commit.committedInstType_0::FloatMemRead         6164      0.00%    100.00% # Class of committed instruction
system.switch_cpus.commit.committedInstType_0::FloatMemWrite         6194      0.00%    100.00% # Class of committed instruction
system.switch_cpus.commit.committedInstType_0::IprAccess            0      0.00%    100.00% # Class of committed instruction
system.switch_cpus.commit.committedInstType_0::InstPrefetch            0      0.00%    100.00% # Class of committed instruction
system.switch_cpus.commit.committedInstType_0::total    489297815                       # Class of committed instruction
system.switch_cpus.commit.commitEligibleSamples     37295525                       # number cycles where commit BW limit reached
system.switch_cpus.decode.idleCycles         10669944                       # Number of cycles decode is idle
system.switch_cpus.decode.blockedCycles      28586387                       # Number of cycles decode is blocked
system.switch_cpus.decode.runCycles          90618409                       # Number of cycles decode is running
system.switch_cpus.decode.unblockCycles       9935221                       # Number of cycles decode is unblocking
system.switch_cpus.decode.squashCycles        2516760                       # Number of cycles decode is squashing
system.switch_cpus.decode.branchResolved     33874466                       # Number of times decode resolved a  branch
system.switch_cpus.decode.branchMispred         12221                       # Number of times decode detected a branch misprediction
system.switch_cpus.decode.decodedInsts      686927528                       # Number of instructions handled by decode
system.switch_cpus.decode.squashedInsts         53322                       # Number of squashed instructions handled by decode
system.switch_cpus.dtb.rdAccesses           126963048                       # TLB accesses on read requests
system.switch_cpus.dtb.wrAccesses            47231516                       # TLB accesses on write requests
system.switch_cpus.dtb.rdMisses                    29                       # TLB misses on read requests
system.switch_cpus.dtb.wrMisses                     4                       # TLB misses on write requests
system.switch_cpus.dtb.walker.power_state.pwrStateResidencyTicks::UNDEFINED 19790307191358                       # Cumulative time (in ticks) in various power states
system.switch_cpus.fetch.icacheStallCycles      2313917                       # Number of cycles fetch is stalled on an Icache miss
system.switch_cpus.fetch.insts              369059826                       # Number of instructions fetch has processed
system.switch_cpus.fetch.branches            62408857                       # Number of branches that fetch encountered
system.switch_cpus.fetch.predictedBranches     35715846                       # Number of branches that fetch has predicted taken
system.switch_cpus.fetch.cycles             137484116                       # Number of cycles fetch has run and was not squashing or blocked
system.switch_cpus.fetch.squashCycles         5057392                       # Number of cycles fetch has spent squashing
system.switch_cpus.fetch.cacheLines          53659860                       # Number of cache lines fetched
system.switch_cpus.fetch.icacheSquashes          2849                       # Number of outstanding Icache misses that were squashed
system.switch_cpus.fetch.nisnDist::samples    142326729                       # Number of instructions fetched each cycle (Total)
system.switch_cpus.fetch.nisnDist::mean      5.073376                       # Number of instructions fetched each cycle (Total)
system.switch_cpus.fetch.nisnDist::stdev     3.137790                       # Number of instructions fetched each cycle (Total)
system.switch_cpus.fetch.nisnDist::underflows            0      0.00%      0.00% # Number of instructions fetched each cycle (Total)
system.switch_cpus.fetch.nisnDist::0         21997385     15.46%     15.46% # Number of instructions fetched each cycle (Total)
system.switch_cpus.fetch.nisnDist::1         10286995      7.23%     22.68% # Number of instructions fetched each cycle (Total)
system.switch_cpus.fetch.nisnDist::2          4711676      3.31%     25.99% # Number of instructions fetched each cycle (Total)
system.switch_cpus.fetch.nisnDist::3         12621793      8.87%     34.86% # Number of instructions fetched each cycle (Total)
system.switch_cpus.fetch.nisnDist::4          6487381      4.56%     39.42% # Number of instructions fetched each cycle (Total)
system.switch_cpus.fetch.nisnDist::5          8877811      6.24%     45.66% # Number of instructions fetched each cycle (Total)
system.switch_cpus.fetch.nisnDist::6          7505436      5.27%     50.93% # Number of instructions fetched each cycle (Total)
system.switch_cpus.fetch.nisnDist::7          9575864      6.73%     57.66% # Number of instructions fetched each cycle (Total)
system.switch_cpus.fetch.nisnDist::8         60262388     42.34%    100.00% # Number of instructions fetched each cycle (Total)
system.switch_cpus.fetch.nisnDist::overflows            0      0.00%    100.00% # Number of instructions fetched each cycle (Total)
system.switch_cpus.fetch.nisnDist::min_value            0                       # Number of instructions fetched each cycle (Total)
system.switch_cpus.fetch.nisnDist::max_value            8                       # Number of instructions fetched each cycle (Total)
system.switch_cpus.fetch.nisnDist::total    142326729                       # Number of instructions fetched each cycle (Total)
system.switch_cpus.fetch.branchRate          0.437868                       # Number of branch fetches per cycle
system.switch_cpus.fetch.rate                2.589368                       # Number of inst fetches per cycle
system.switch_cpus.itb.rdAccesses                   0                       # TLB accesses on read requests
system.switch_cpus.itb.wrAccesses            53659860                       # TLB accesses on write requests
system.switch_cpus.itb.rdMisses                     0                       # TLB misses on read requests
system.switch_cpus.itb.wrMisses                    32                       # TLB misses on write requests
system.switch_cpus.itb.walker.power_state.pwrStateResidencyTicks::UNDEFINED 19790307191358                       # Cumulative time (in ticks) in various power states
system.switch_cpus.lsq0.forwLoads            14341191                       # Number of loads that had data forwarded from stores
system.switch_cpus.lsq0.squashedLoads        37817613                       # Number of loads squashed
system.switch_cpus.lsq0.ignoredResponses         4120                       # Number of memory responses ignored because the instruction is squashed
system.switch_cpus.lsq0.memOrderViolation        41513                       # Number of memory ordering violations
system.switch_cpus.lsq0.squashedStores       11963916                       # Number of stores squashed
system.switch_cpus.lsq0.rescheduledLoads           14                       # Number of loads that were rescheduled
system.switch_cpus.lsq0.blockedByCache              1                       # Number of times an access to memory failed due to the cache being blocked
system.switch_cpus.power_state.pwrStateResidencyTicks::OFF  47462142681                       # Cumulative time (in ticks) in various power states
system.switch_cpus.rename.squashCycles        2516760                       # Number of cycles rename is squashing
system.switch_cpus.rename.idleCycles         15399105                       # Number of cycles rename is idle
system.switch_cpus.rename.blockCycles        18201364                       # Number of cycles rename is blocking
system.switch_cpus.rename.serializeStallCycles            0                       # count of cycles rename stalledfor serializing inst
system.switch_cpus.rename.runCycles          95554936                       # Number of cycles rename is running
system.switch_cpus.rename.unblockCycles      10654556                       # Number of cycles rename is unblocking
system.switch_cpus.rename.renamedInsts      671110317                       # Number of instructions processed by rename
system.switch_cpus.rename.ROBFullEvents         13922                       # Number of times rename has blocked due to ROB full
system.switch_cpus.rename.IQFullEvents        1420192                       # Number of times rename has blocked due to IQ full
system.switch_cpus.rename.LQFullEvents        7510841                       # Number of times rename has blocked due to LQ full
system.switch_cpus.rename.SQFullEvents          34101                       # Number of times rename has blocked due to SQ full
system.switch_cpus.rename.renamedOperands    847436667                       # Number of destination operands rename has renamed
system.switch_cpus.rename.lookups          1630593907                       # Number of register rename lookups that rename has made
system.switch_cpus.rename.intLookups       1001211667                       # Number of integer rename lookups
system.switch_cpus.rename.fpLookups              6530                       # Number of floating rename lookups
system.switch_cpus.rename.committedMaps     613590271                       # Number of HB maps that are committed
system.switch_cpus.rename.undoneMaps        233846292                       # Number of HB maps that are undone due to squashing
system.switch_cpus.rename.serializing               0                       # count of serializing insts renamed
system.switch_cpus.rename.tempSerializing            0                       # count of temporary serializing insts renamed
system.switch_cpus.rename.skidInsts          33639296                       # count of insts added to the skid buffer
system.switch_cpus.rob.reads                728398507                       # The number of ROB reads
system.switch_cpus.rob.writes              1308981300                       # The number of ROB writes
system.switch_cpus.thread0.numInsts         250000000                       # Number of Instructions committed
system.switch_cpus.thread0.numOps           489297815                       # Number of Ops committed
system.switch_cpus.thread0.numMemRefs               0                       # Number of Memory References
system.voltage_domain.voltage                       1                       # Voltage in Volts

---------- End Simulation Statistics   ----------
