
---------- Begin Simulation Statistics ----------
final_tick                               15740521291431                       # Number of ticks from beginning of simulation (restored from checkpoints and never reset)
host_inst_rate                                  98622                       # Simulator instruction rate (inst/s)
host_mem_usage                               17618620                       # Number of bytes of host memory used
host_op_rate                                   162812                       # Simulator op (including micro ops) rate (op/s)
host_seconds                                 10138.49                       # Real time elapsed on the host
host_tick_rate                                8804480                       # Simulator tick rate (ticks/s)
sim_freq                                 1000000000000                       # Frequency of simulated ticks
sim_insts                                   999880322                       # Number of instructions simulated
sim_ops                                    1650670486                       # Number of ops (including micro ops) simulated
sim_seconds                                  0.089264                       # Number of seconds simulated
sim_ticks                                 89264173473                       # Number of ticks simulated
system.cpu0.Branches                                1                       # Number of branches fetched
system.cpu0.committedInsts                         16                       # Number of instructions committed
system.cpu0.committedOps                           22                       # Number of ops (including micro ops) committed
system.cpu0.idle_fraction                           0                       # Percentage of idle cycles
system.cpu0.l2bus.snoop_filter.hit_multi_requests            2                       # Number of requests hitting in the snoop filter with multiple (>1) holders of the requested data.
system.cpu0.l2bus.snoop_filter.hit_multi_snoops            0                       # Number of snoops hitting in the snoop filter with multiple (>1) holders of the requested data.
system.cpu0.l2bus.snoop_filter.hit_single_requests      2574443                       # Number of requests hitting in the snoop filter with a single holder of the requested data.
system.cpu0.l2bus.snoop_filter.hit_single_snoops         6229                       # Number of snoops hitting in the snoop filter with a single holder of the requested data.
system.cpu0.l2bus.snoop_filter.tot_requests      5018819                       # Total number of requests made to the snoop filter.
system.cpu0.l2bus.snoop_filter.tot_snoops         6229                       # Total number of snoops made to the snoop filter.
system.cpu0.mmucache.mmubus.snoop_filter.hit_multi_requests            0                       # Number of requests hitting in the snoop filter with multiple (>1) holders of the requested data.
system.cpu0.mmucache.mmubus.snoop_filter.hit_multi_snoops            0                       # Number of snoops hitting in the snoop filter with multiple (>1) holders of the requested data.
system.cpu0.mmucache.mmubus.snoop_filter.hit_single_requests            0                       # Number of requests hitting in the snoop filter with a single holder of the requested data.
system.cpu0.mmucache.mmubus.snoop_filter.hit_single_snoops            0                       # Number of snoops hitting in the snoop filter with a single holder of the requested data.
system.cpu0.mmucache.mmubus.snoop_filter.tot_requests            0                       # Total number of requests made to the snoop filter.
system.cpu0.mmucache.mmubus.snoop_filter.tot_snoops            0                       # Total number of snoops made to the snoop filter.
system.cpu0.not_idle_fraction                       1                       # Percentage of non-idle cycles
system.cpu0.numCycles                              30                       # number of cpu cycles simulated
system.cpu0.numWorkItemsCompleted                   0                       # number of work items this cpu completed
system.cpu0.numWorkItemsStarted                     0                       # number of work items this cpu started
system.cpu0.num_busy_cycles                        30                       # Number of busy cycles
system.cpu0.num_cc_register_reads                   5                       # number of times the CC registers were read
system.cpu0.num_cc_register_writes                  6                       # number of times the CC registers were written
system.cpu0.num_conditional_control_insts            1                       # number of instructions that are conditional controls
system.cpu0.num_fp_alu_accesses                    13                       # Number of float alu accesses
system.cpu0.num_fp_insts                           13                       # number of float instructions
system.cpu0.num_fp_register_reads                  23                       # number of times the floating registers were read
system.cpu0.num_fp_register_writes                 12                       # number of times the floating registers were written
system.cpu0.num_func_calls                          0                       # number of times a function call or return occured
system.cpu0.num_idle_cycles                         0                       # Number of idle cycles
system.cpu0.num_int_alu_accesses                   14                       # Number of integer alu accesses
system.cpu0.num_int_insts                          14                       # number of integer instructions
system.cpu0.num_int_register_reads                 31                       # number of times the integer registers were read
system.cpu0.num_int_register_writes                 8                       # number of times the integer registers were written
system.cpu0.num_load_insts                          6                       # Number of load instructions
system.cpu0.num_mem_refs                            7                       # number of memory refs
system.cpu0.num_store_insts                         1                       # Number of store instructions
system.cpu0.num_vec_alu_accesses                    0                       # Number of vector alu accesses
system.cpu0.num_vec_insts                           0                       # number of vector instructions
system.cpu0.num_vec_register_reads                  0                       # number of times the vector registers were read
system.cpu0.num_vec_register_writes                 0                       # number of times the vector registers were written
system.cpu0.op_class::No_OpClass                    0      0.00%      0.00% # Class of executed instruction
system.cpu0.op_class::IntAlu                        9     40.91%     40.91% # Class of executed instruction
system.cpu0.op_class::IntMult                       0      0.00%     40.91% # Class of executed instruction
system.cpu0.op_class::IntDiv                        0      0.00%     40.91% # Class of executed instruction
system.cpu0.op_class::FloatAdd                      0      0.00%     40.91% # Class of executed instruction
system.cpu0.op_class::FloatCmp                      0      0.00%     40.91% # Class of executed instruction
system.cpu0.op_class::FloatCvt                      0      0.00%     40.91% # Class of executed instruction
system.cpu0.op_class::FloatMult                     0      0.00%     40.91% # Class of executed instruction
system.cpu0.op_class::FloatMultAcc                  0      0.00%     40.91% # Class of executed instruction
system.cpu0.op_class::FloatDiv                      0      0.00%     40.91% # Class of executed instruction
system.cpu0.op_class::FloatMisc                     0      0.00%     40.91% # Class of executed instruction
system.cpu0.op_class::FloatSqrt                     0      0.00%     40.91% # Class of executed instruction
system.cpu0.op_class::SimdAdd                       0      0.00%     40.91% # Class of executed instruction
system.cpu0.op_class::SimdAddAcc                    0      0.00%     40.91% # Class of executed instruction
system.cpu0.op_class::SimdAlu                       0      0.00%     40.91% # Class of executed instruction
system.cpu0.op_class::SimdCmp                       0      0.00%     40.91% # Class of executed instruction
system.cpu0.op_class::SimdCvt                       0      0.00%     40.91% # Class of executed instruction
system.cpu0.op_class::SimdMisc                      0      0.00%     40.91% # Class of executed instruction
system.cpu0.op_class::SimdMult                      0      0.00%     40.91% # Class of executed instruction
system.cpu0.op_class::SimdMultAcc                   0      0.00%     40.91% # Class of executed instruction
system.cpu0.op_class::SimdShift                     0      0.00%     40.91% # Class of executed instruction
system.cpu0.op_class::SimdShiftAcc                  0      0.00%     40.91% # Class of executed instruction
system.cpu0.op_class::SimdDiv                       0      0.00%     40.91% # Class of executed instruction
system.cpu0.op_class::SimdSqrt                      0      0.00%     40.91% # Class of executed instruction
system.cpu0.op_class::SimdFloatAdd                  4     18.18%     59.09% # Class of executed instruction
system.cpu0.op_class::SimdFloatAlu                  0      0.00%     59.09% # Class of executed instruction
system.cpu0.op_class::SimdFloatCmp                  0      0.00%     59.09% # Class of executed instruction
system.cpu0.op_class::SimdFloatCvt                  0      0.00%     59.09% # Class of executed instruction
system.cpu0.op_class::SimdFloatDiv                  0      0.00%     59.09% # Class of executed instruction
system.cpu0.op_class::SimdFloatMisc                 0      0.00%     59.09% # Class of executed instruction
system.cpu0.op_class::SimdFloatMult                 2      9.09%     68.18% # Class of executed instruction
system.cpu0.op_class::SimdFloatMultAcc              0      0.00%     68.18% # Class of executed instruction
system.cpu0.op_class::SimdFloatSqrt                 0      0.00%     68.18% # Class of executed instruction
system.cpu0.op_class::SimdReduceAdd                 0      0.00%     68.18% # Class of executed instruction
system.cpu0.op_class::SimdReduceAlu                 0      0.00%     68.18% # Class of executed instruction
system.cpu0.op_class::SimdReduceCmp                 0      0.00%     68.18% # Class of executed instruction
system.cpu0.op_class::SimdFloatReduceAdd            0      0.00%     68.18% # Class of executed instruction
system.cpu0.op_class::SimdFloatReduceCmp            0      0.00%     68.18% # Class of executed instruction
system.cpu0.op_class::SimdAes                       0      0.00%     68.18% # Class of executed instruction
system.cpu0.op_class::SimdAesMix                    0      0.00%     68.18% # Class of executed instruction
system.cpu0.op_class::SimdSha1Hash                  0      0.00%     68.18% # Class of executed instruction
system.cpu0.op_class::SimdSha1Hash2                 0      0.00%     68.18% # Class of executed instruction
system.cpu0.op_class::SimdSha256Hash                0      0.00%     68.18% # Class of executed instruction
system.cpu0.op_class::SimdSha256Hash2               0      0.00%     68.18% # Class of executed instruction
system.cpu0.op_class::SimdShaSigma2                 0      0.00%     68.18% # Class of executed instruction
system.cpu0.op_class::SimdShaSigma3                 0      0.00%     68.18% # Class of executed instruction
system.cpu0.op_class::SimdPredAlu                   0      0.00%     68.18% # Class of executed instruction
system.cpu0.op_class::MemRead                       2      9.09%     77.27% # Class of executed instruction
system.cpu0.op_class::MemWrite                      0      0.00%     77.27% # Class of executed instruction
system.cpu0.op_class::FloatMemRead                  4     18.18%     95.45% # Class of executed instruction
system.cpu0.op_class::FloatMemWrite                 1      4.55%    100.00% # Class of executed instruction
system.cpu0.op_class::IprAccess                     0      0.00%    100.00% # Class of executed instruction
system.cpu0.op_class::InstPrefetch                  0      0.00%    100.00% # Class of executed instruction
system.cpu0.op_class::total                        22                       # Class of executed instruction
system.cpu0.workload.numSyscalls                    0                       # Number of system calls
system.cpu1.Branches                                1                       # Number of branches fetched
system.cpu1.committedInsts                         16                       # Number of instructions committed
system.cpu1.committedOps                           22                       # Number of ops (including micro ops) committed
system.cpu1.idle_fraction                           0                       # Percentage of idle cycles
system.cpu1.l2bus.snoop_filter.hit_multi_requests            3                       # Number of requests hitting in the snoop filter with multiple (>1) holders of the requested data.
system.cpu1.l2bus.snoop_filter.hit_multi_snoops            0                       # Number of snoops hitting in the snoop filter with multiple (>1) holders of the requested data.
system.cpu1.l2bus.snoop_filter.hit_single_requests      2574573                       # Number of requests hitting in the snoop filter with a single holder of the requested data.
system.cpu1.l2bus.snoop_filter.hit_single_snoops         6174                       # Number of snoops hitting in the snoop filter with a single holder of the requested data.
system.cpu1.l2bus.snoop_filter.tot_requests      5019044                       # Total number of requests made to the snoop filter.
system.cpu1.l2bus.snoop_filter.tot_snoops         6174                       # Total number of snoops made to the snoop filter.
system.cpu1.mmucache.mmubus.snoop_filter.hit_multi_requests            0                       # Number of requests hitting in the snoop filter with multiple (>1) holders of the requested data.
system.cpu1.mmucache.mmubus.snoop_filter.hit_multi_snoops            0                       # Number of snoops hitting in the snoop filter with multiple (>1) holders of the requested data.
system.cpu1.mmucache.mmubus.snoop_filter.hit_single_requests            0                       # Number of requests hitting in the snoop filter with a single holder of the requested data.
system.cpu1.mmucache.mmubus.snoop_filter.hit_single_snoops            0                       # Number of snoops hitting in the snoop filter with a single holder of the requested data.
system.cpu1.mmucache.mmubus.snoop_filter.tot_requests            0                       # Total number of requests made to the snoop filter.
system.cpu1.mmucache.mmubus.snoop_filter.tot_snoops            0                       # Total number of snoops made to the snoop filter.
system.cpu1.not_idle_fraction                       1                       # Percentage of non-idle cycles
system.cpu1.numCycles                              30                       # number of cpu cycles simulated
system.cpu1.numWorkItemsCompleted                   0                       # number of work items this cpu completed
system.cpu1.numWorkItemsStarted                     0                       # number of work items this cpu started
system.cpu1.num_busy_cycles                        30                       # Number of busy cycles
system.cpu1.num_cc_register_reads                   5                       # number of times the CC registers were read
system.cpu1.num_cc_register_writes                  6                       # number of times the CC registers were written
system.cpu1.num_conditional_control_insts            1                       # number of instructions that are conditional controls
system.cpu1.num_fp_alu_accesses                    13                       # Number of float alu accesses
system.cpu1.num_fp_insts                           13                       # number of float instructions
system.cpu1.num_fp_register_reads                  23                       # number of times the floating registers were read
system.cpu1.num_fp_register_writes                 12                       # number of times the floating registers were written
system.cpu1.num_func_calls                          0                       # number of times a function call or return occured
system.cpu1.num_idle_cycles                         0                       # Number of idle cycles
system.cpu1.num_int_alu_accesses                   14                       # Number of integer alu accesses
system.cpu1.num_int_insts                          14                       # number of integer instructions
system.cpu1.num_int_register_reads                 31                       # number of times the integer registers were read
system.cpu1.num_int_register_writes                 8                       # number of times the integer registers were written
system.cpu1.num_load_insts                          6                       # Number of load instructions
system.cpu1.num_mem_refs                            7                       # number of memory refs
system.cpu1.num_store_insts                         1                       # Number of store instructions
system.cpu1.num_vec_alu_accesses                    0                       # Number of vector alu accesses
system.cpu1.num_vec_insts                           0                       # number of vector instructions
system.cpu1.num_vec_register_reads                  0                       # number of times the vector registers were read
system.cpu1.num_vec_register_writes                 0                       # number of times the vector registers were written
system.cpu1.op_class::No_OpClass                    0      0.00%      0.00% # Class of executed instruction
system.cpu1.op_class::IntAlu                        9     40.91%     40.91% # Class of executed instruction
system.cpu1.op_class::IntMult                       0      0.00%     40.91% # Class of executed instruction
system.cpu1.op_class::IntDiv                        0      0.00%     40.91% # Class of executed instruction
system.cpu1.op_class::FloatAdd                      0      0.00%     40.91% # Class of executed instruction
system.cpu1.op_class::FloatCmp                      0      0.00%     40.91% # Class of executed instruction
system.cpu1.op_class::FloatCvt                      0      0.00%     40.91% # Class of executed instruction
system.cpu1.op_class::FloatMult                     0      0.00%     40.91% # Class of executed instruction
system.cpu1.op_class::FloatMultAcc                  0      0.00%     40.91% # Class of executed instruction
system.cpu1.op_class::FloatDiv                      0      0.00%     40.91% # Class of executed instruction
system.cpu1.op_class::FloatMisc                     0      0.00%     40.91% # Class of executed instruction
system.cpu1.op_class::FloatSqrt                     0      0.00%     40.91% # Class of executed instruction
system.cpu1.op_class::SimdAdd                       0      0.00%     40.91% # Class of executed instruction
system.cpu1.op_class::SimdAddAcc                    0      0.00%     40.91% # Class of executed instruction
system.cpu1.op_class::SimdAlu                       0      0.00%     40.91% # Class of executed instruction
system.cpu1.op_class::SimdCmp                       0      0.00%     40.91% # Class of executed instruction
system.cpu1.op_class::SimdCvt                       0      0.00%     40.91% # Class of executed instruction
system.cpu1.op_class::SimdMisc                      0      0.00%     40.91% # Class of executed instruction
system.cpu1.op_class::SimdMult                      0      0.00%     40.91% # Class of executed instruction
system.cpu1.op_class::SimdMultAcc                   0      0.00%     40.91% # Class of executed instruction
system.cpu1.op_class::SimdShift                     0      0.00%     40.91% # Class of executed instruction
system.cpu1.op_class::SimdShiftAcc                  0      0.00%     40.91% # Class of executed instruction
system.cpu1.op_class::SimdDiv                       0      0.00%     40.91% # Class of executed instruction
system.cpu1.op_class::SimdSqrt                      0      0.00%     40.91% # Class of executed instruction
system.cpu1.op_class::SimdFloatAdd                  4     18.18%     59.09% # Class of executed instruction
system.cpu1.op_class::SimdFloatAlu                  0      0.00%     59.09% # Class of executed instruction
system.cpu1.op_class::SimdFloatCmp                  0      0.00%     59.09% # Class of executed instruction
system.cpu1.op_class::SimdFloatCvt                  0      0.00%     59.09% # Class of executed instruction
system.cpu1.op_class::SimdFloatDiv                  0      0.00%     59.09% # Class of executed instruction
system.cpu1.op_class::SimdFloatMisc                 0      0.00%     59.09% # Class of executed instruction
system.cpu1.op_class::SimdFloatMult                 2      9.09%     68.18% # Class of executed instruction
system.cpu1.op_class::SimdFloatMultAcc              0      0.00%     68.18% # Class of executed instruction
system.cpu1.op_class::SimdFloatSqrt                 0      0.00%     68.18% # Class of executed instruction
system.cpu1.op_class::SimdReduceAdd                 0      0.00%     68.18% # Class of executed instruction
system.cpu1.op_class::SimdReduceAlu                 0      0.00%     68.18% # Class of executed instruction
system.cpu1.op_class::SimdReduceCmp                 0      0.00%     68.18% # Class of executed instruction
system.cpu1.op_class::SimdFloatReduceAdd            0      0.00%     68.18% # Class of executed instruction
system.cpu1.op_class::SimdFloatReduceCmp            0      0.00%     68.18% # Class of executed instruction
system.cpu1.op_class::SimdAes                       0      0.00%     68.18% # Class of executed instruction
system.cpu1.op_class::SimdAesMix                    0      0.00%     68.18% # Class of executed instruction
system.cpu1.op_class::SimdSha1Hash                  0      0.00%     68.18% # Class of executed instruction
system.cpu1.op_class::SimdSha1Hash2                 0      0.00%     68.18% # Class of executed instruction
system.cpu1.op_class::SimdSha256Hash                0      0.00%     68.18% # Class of executed instruction
system.cpu1.op_class::SimdSha256Hash2               0      0.00%     68.18% # Class of executed instruction
system.cpu1.op_class::SimdShaSigma2                 0      0.00%     68.18% # Class of executed instruction
system.cpu1.op_class::SimdShaSigma3                 0      0.00%     68.18% # Class of executed instruction
system.cpu1.op_class::SimdPredAlu                   0      0.00%     68.18% # Class of executed instruction
system.cpu1.op_class::MemRead                       2      9.09%     77.27% # Class of executed instruction
system.cpu1.op_class::MemWrite                      0      0.00%     77.27% # Class of executed instruction
system.cpu1.op_class::FloatMemRead                  4     18.18%     95.45% # Class of executed instruction
system.cpu1.op_class::FloatMemWrite                 1      4.55%    100.00% # Class of executed instruction
system.cpu1.op_class::IprAccess                     0      0.00%    100.00% # Class of executed instruction
system.cpu1.op_class::InstPrefetch                  0      0.00%    100.00% # Class of executed instruction
system.cpu1.op_class::total                        22                       # Class of executed instruction
system.cpu1.workload.numSyscalls                    0                       # Number of system calls
system.cpu2.Branches                                1                       # Number of branches fetched
system.cpu2.committedInsts                         16                       # Number of instructions committed
system.cpu2.committedOps                           22                       # Number of ops (including micro ops) committed
system.cpu2.idle_fraction                           0                       # Percentage of idle cycles
system.cpu2.l2bus.snoop_filter.hit_multi_requests            2                       # Number of requests hitting in the snoop filter with multiple (>1) holders of the requested data.
system.cpu2.l2bus.snoop_filter.hit_multi_snoops            0                       # Number of snoops hitting in the snoop filter with multiple (>1) holders of the requested data.
system.cpu2.l2bus.snoop_filter.hit_single_requests      2573894                       # Number of requests hitting in the snoop filter with a single holder of the requested data.
system.cpu2.l2bus.snoop_filter.hit_single_snoops         5773                       # Number of snoops hitting in the snoop filter with a single holder of the requested data.
system.cpu2.l2bus.snoop_filter.tot_requests      5018525                       # Total number of requests made to the snoop filter.
system.cpu2.l2bus.snoop_filter.tot_snoops         5773                       # Total number of snoops made to the snoop filter.
system.cpu2.mmucache.mmubus.snoop_filter.hit_multi_requests            0                       # Number of requests hitting in the snoop filter with multiple (>1) holders of the requested data.
system.cpu2.mmucache.mmubus.snoop_filter.hit_multi_snoops            0                       # Number of snoops hitting in the snoop filter with multiple (>1) holders of the requested data.
system.cpu2.mmucache.mmubus.snoop_filter.hit_single_requests            0                       # Number of requests hitting in the snoop filter with a single holder of the requested data.
system.cpu2.mmucache.mmubus.snoop_filter.hit_single_snoops            0                       # Number of snoops hitting in the snoop filter with a single holder of the requested data.
system.cpu2.mmucache.mmubus.snoop_filter.tot_requests            0                       # Total number of requests made to the snoop filter.
system.cpu2.mmucache.mmubus.snoop_filter.tot_snoops            0                       # Total number of snoops made to the snoop filter.
system.cpu2.not_idle_fraction                       1                       # Percentage of non-idle cycles
system.cpu2.numCycles                              30                       # number of cpu cycles simulated
system.cpu2.numWorkItemsCompleted                   0                       # number of work items this cpu completed
system.cpu2.numWorkItemsStarted                     0                       # number of work items this cpu started
system.cpu2.num_busy_cycles                        30                       # Number of busy cycles
system.cpu2.num_cc_register_reads                   5                       # number of times the CC registers were read
system.cpu2.num_cc_register_writes                  6                       # number of times the CC registers were written
system.cpu2.num_conditional_control_insts            1                       # number of instructions that are conditional controls
system.cpu2.num_fp_alu_accesses                    13                       # Number of float alu accesses
system.cpu2.num_fp_insts                           13                       # number of float instructions
system.cpu2.num_fp_register_reads                  23                       # number of times the floating registers were read
system.cpu2.num_fp_register_writes                 12                       # number of times the floating registers were written
system.cpu2.num_func_calls                          0                       # number of times a function call or return occured
system.cpu2.num_idle_cycles                         0                       # Number of idle cycles
system.cpu2.num_int_alu_accesses                   14                       # Number of integer alu accesses
system.cpu2.num_int_insts                          14                       # number of integer instructions
system.cpu2.num_int_register_reads                 31                       # number of times the integer registers were read
system.cpu2.num_int_register_writes                 8                       # number of times the integer registers were written
system.cpu2.num_load_insts                          6                       # Number of load instructions
system.cpu2.num_mem_refs                            7                       # number of memory refs
system.cpu2.num_store_insts                         1                       # Number of store instructions
system.cpu2.num_vec_alu_accesses                    0                       # Number of vector alu accesses
system.cpu2.num_vec_insts                           0                       # number of vector instructions
system.cpu2.num_vec_register_reads                  0                       # number of times the vector registers were read
system.cpu2.num_vec_register_writes                 0                       # number of times the vector registers were written
system.cpu2.op_class::No_OpClass                    0      0.00%      0.00% # Class of executed instruction
system.cpu2.op_class::IntAlu                        9     40.91%     40.91% # Class of executed instruction
system.cpu2.op_class::IntMult                       0      0.00%     40.91% # Class of executed instruction
system.cpu2.op_class::IntDiv                        0      0.00%     40.91% # Class of executed instruction
system.cpu2.op_class::FloatAdd                      0      0.00%     40.91% # Class of executed instruction
system.cpu2.op_class::FloatCmp                      0      0.00%     40.91% # Class of executed instruction
system.cpu2.op_class::FloatCvt                      0      0.00%     40.91% # Class of executed instruction
system.cpu2.op_class::FloatMult                     0      0.00%     40.91% # Class of executed instruction
system.cpu2.op_class::FloatMultAcc                  0      0.00%     40.91% # Class of executed instruction
system.cpu2.op_class::FloatDiv                      0      0.00%     40.91% # Class of executed instruction
system.cpu2.op_class::FloatMisc                     0      0.00%     40.91% # Class of executed instruction
system.cpu2.op_class::FloatSqrt                     0      0.00%     40.91% # Class of executed instruction
system.cpu2.op_class::SimdAdd                       0      0.00%     40.91% # Class of executed instruction
system.cpu2.op_class::SimdAddAcc                    0      0.00%     40.91% # Class of executed instruction
system.cpu2.op_class::SimdAlu                       0      0.00%     40.91% # Class of executed instruction
system.cpu2.op_class::SimdCmp                       0      0.00%     40.91% # Class of executed instruction
system.cpu2.op_class::SimdCvt                       0      0.00%     40.91% # Class of executed instruction
system.cpu2.op_class::SimdMisc                      0      0.00%     40.91% # Class of executed instruction
system.cpu2.op_class::SimdMult                      0      0.00%     40.91% # Class of executed instruction
system.cpu2.op_class::SimdMultAcc                   0      0.00%     40.91% # Class of executed instruction
system.cpu2.op_class::SimdShift                     0      0.00%     40.91% # Class of executed instruction
system.cpu2.op_class::SimdShiftAcc                  0      0.00%     40.91% # Class of executed instruction
system.cpu2.op_class::SimdDiv                       0      0.00%     40.91% # Class of executed instruction
system.cpu2.op_class::SimdSqrt                      0      0.00%     40.91% # Class of executed instruction
system.cpu2.op_class::SimdFloatAdd                  4     18.18%     59.09% # Class of executed instruction
system.cpu2.op_class::SimdFloatAlu                  0      0.00%     59.09% # Class of executed instruction
system.cpu2.op_class::SimdFloatCmp                  0      0.00%     59.09% # Class of executed instruction
system.cpu2.op_class::SimdFloatCvt                  0      0.00%     59.09% # Class of executed instruction
system.cpu2.op_class::SimdFloatDiv                  0      0.00%     59.09% # Class of executed instruction
system.cpu2.op_class::SimdFloatMisc                 0      0.00%     59.09% # Class of executed instruction
system.cpu2.op_class::SimdFloatMult                 2      9.09%     68.18% # Class of executed instruction
system.cpu2.op_class::SimdFloatMultAcc              0      0.00%     68.18% # Class of executed instruction
system.cpu2.op_class::SimdFloatSqrt                 0      0.00%     68.18% # Class of executed instruction
system.cpu2.op_class::SimdReduceAdd                 0      0.00%     68.18% # Class of executed instruction
system.cpu2.op_class::SimdReduceAlu                 0      0.00%     68.18% # Class of executed instruction
system.cpu2.op_class::SimdReduceCmp                 0      0.00%     68.18% # Class of executed instruction
system.cpu2.op_class::SimdFloatReduceAdd            0      0.00%     68.18% # Class of executed instruction
system.cpu2.op_class::SimdFloatReduceCmp            0      0.00%     68.18% # Class of executed instruction
system.cpu2.op_class::SimdAes                       0      0.00%     68.18% # Class of executed instruction
system.cpu2.op_class::SimdAesMix                    0      0.00%     68.18% # Class of executed instruction
system.cpu2.op_class::SimdSha1Hash                  0      0.00%     68.18% # Class of executed instruction
system.cpu2.op_class::SimdSha1Hash2                 0      0.00%     68.18% # Class of executed instruction
system.cpu2.op_class::SimdSha256Hash                0      0.00%     68.18% # Class of executed instruction
system.cpu2.op_class::SimdSha256Hash2               0      0.00%     68.18% # Class of executed instruction
system.cpu2.op_class::SimdShaSigma2                 0      0.00%     68.18% # Class of executed instruction
system.cpu2.op_class::SimdShaSigma3                 0      0.00%     68.18% # Class of executed instruction
system.cpu2.op_class::SimdPredAlu                   0      0.00%     68.18% # Class of executed instruction
system.cpu2.op_class::MemRead                       2      9.09%     77.27% # Class of executed instruction
system.cpu2.op_class::MemWrite                      0      0.00%     77.27% # Class of executed instruction
system.cpu2.op_class::FloatMemRead                  4     18.18%     95.45% # Class of executed instruction
system.cpu2.op_class::FloatMemWrite                 1      4.55%    100.00% # Class of executed instruction
system.cpu2.op_class::IprAccess                     0      0.00%    100.00% # Class of executed instruction
system.cpu2.op_class::InstPrefetch                  0      0.00%    100.00% # Class of executed instruction
system.cpu2.op_class::total                        22                       # Class of executed instruction
system.cpu2.workload.numSyscalls                    0                       # Number of system calls
system.cpu3.Branches                                1                       # Number of branches fetched
system.cpu3.committedInsts                         16                       # Number of instructions committed
system.cpu3.committedOps                           22                       # Number of ops (including micro ops) committed
system.cpu3.idle_fraction                           0                       # Percentage of idle cycles
system.cpu3.l2bus.snoop_filter.hit_multi_requests            2                       # Number of requests hitting in the snoop filter with multiple (>1) holders of the requested data.
system.cpu3.l2bus.snoop_filter.hit_multi_snoops            0                       # Number of snoops hitting in the snoop filter with multiple (>1) holders of the requested data.
system.cpu3.l2bus.snoop_filter.hit_single_requests      2573831                       # Number of requests hitting in the snoop filter with a single holder of the requested data.
system.cpu3.l2bus.snoop_filter.hit_single_snoops         5762                       # Number of snoops hitting in the snoop filter with a single holder of the requested data.
system.cpu3.l2bus.snoop_filter.tot_requests      5018390                       # Total number of requests made to the snoop filter.
system.cpu3.l2bus.snoop_filter.tot_snoops         5762                       # Total number of snoops made to the snoop filter.
system.cpu3.mmucache.mmubus.snoop_filter.hit_multi_requests            0                       # Number of requests hitting in the snoop filter with multiple (>1) holders of the requested data.
system.cpu3.mmucache.mmubus.snoop_filter.hit_multi_snoops            0                       # Number of snoops hitting in the snoop filter with multiple (>1) holders of the requested data.
system.cpu3.mmucache.mmubus.snoop_filter.hit_single_requests            0                       # Number of requests hitting in the snoop filter with a single holder of the requested data.
system.cpu3.mmucache.mmubus.snoop_filter.hit_single_snoops            0                       # Number of snoops hitting in the snoop filter with a single holder of the requested data.
system.cpu3.mmucache.mmubus.snoop_filter.tot_requests            0                       # Total number of requests made to the snoop filter.
system.cpu3.mmucache.mmubus.snoop_filter.tot_snoops            0                       # Total number of snoops made to the snoop filter.
system.cpu3.not_idle_fraction                       1                       # Percentage of non-idle cycles
system.cpu3.numCycles                              30                       # number of cpu cycles simulated
system.cpu3.numWorkItemsCompleted                   0                       # number of work items this cpu completed
system.cpu3.numWorkItemsStarted                     0                       # number of work items this cpu started
system.cpu3.num_busy_cycles                        30                       # Number of busy cycles
system.cpu3.num_cc_register_reads                   5                       # number of times the CC registers were read
system.cpu3.num_cc_register_writes                  6                       # number of times the CC registers were written
system.cpu3.num_conditional_control_insts            1                       # number of instructions that are conditional controls
system.cpu3.num_fp_alu_accesses                    13                       # Number of float alu accesses
system.cpu3.num_fp_insts                           13                       # number of float instructions
system.cpu3.num_fp_register_reads                  23                       # number of times the floating registers were read
system.cpu3.num_fp_register_writes                 12                       # number of times the floating registers were written
system.cpu3.num_func_calls                          0                       # number of times a function call or return occured
system.cpu3.num_idle_cycles                         0                       # Number of idle cycles
system.cpu3.num_int_alu_accesses                   14                       # Number of integer alu accesses
system.cpu3.num_int_insts                          14                       # number of integer instructions
system.cpu3.num_int_register_reads                 31                       # number of times the integer registers were read
system.cpu3.num_int_register_writes                 8                       # number of times the integer registers were written
system.cpu3.num_load_insts                          6                       # Number of load instructions
system.cpu3.num_mem_refs                            7                       # number of memory refs
system.cpu3.num_store_insts                         1                       # Number of store instructions
system.cpu3.num_vec_alu_accesses                    0                       # Number of vector alu accesses
system.cpu3.num_vec_insts                           0                       # number of vector instructions
system.cpu3.num_vec_register_reads                  0                       # number of times the vector registers were read
system.cpu3.num_vec_register_writes                 0                       # number of times the vector registers were written
system.cpu3.op_class::No_OpClass                    0      0.00%      0.00% # Class of executed instruction
system.cpu3.op_class::IntAlu                        9     40.91%     40.91% # Class of executed instruction
system.cpu3.op_class::IntMult                       0      0.00%     40.91% # Class of executed instruction
system.cpu3.op_class::IntDiv                        0      0.00%     40.91% # Class of executed instruction
system.cpu3.op_class::FloatAdd                      0      0.00%     40.91% # Class of executed instruction
system.cpu3.op_class::FloatCmp                      0      0.00%     40.91% # Class of executed instruction
system.cpu3.op_class::FloatCvt                      0      0.00%     40.91% # Class of executed instruction
system.cpu3.op_class::FloatMult                     0      0.00%     40.91% # Class of executed instruction
system.cpu3.op_class::FloatMultAcc                  0      0.00%     40.91% # Class of executed instruction
system.cpu3.op_class::FloatDiv                      0      0.00%     40.91% # Class of executed instruction
system.cpu3.op_class::FloatMisc                     0      0.00%     40.91% # Class of executed instruction
system.cpu3.op_class::FloatSqrt                     0      0.00%     40.91% # Class of executed instruction
system.cpu3.op_class::SimdAdd                       0      0.00%     40.91% # Class of executed instruction
system.cpu3.op_class::SimdAddAcc                    0      0.00%     40.91% # Class of executed instruction
system.cpu3.op_class::SimdAlu                       0      0.00%     40.91% # Class of executed instruction
system.cpu3.op_class::SimdCmp                       0      0.00%     40.91% # Class of executed instruction
system.cpu3.op_class::SimdCvt                       0      0.00%     40.91% # Class of executed instruction
system.cpu3.op_class::SimdMisc                      0      0.00%     40.91% # Class of executed instruction
system.cpu3.op_class::SimdMult                      0      0.00%     40.91% # Class of executed instruction
system.cpu3.op_class::SimdMultAcc                   0      0.00%     40.91% # Class of executed instruction
system.cpu3.op_class::SimdShift                     0      0.00%     40.91% # Class of executed instruction
system.cpu3.op_class::SimdShiftAcc                  0      0.00%     40.91% # Class of executed instruction
system.cpu3.op_class::SimdDiv                       0      0.00%     40.91% # Class of executed instruction
system.cpu3.op_class::SimdSqrt                      0      0.00%     40.91% # Class of executed instruction
system.cpu3.op_class::SimdFloatAdd                  4     18.18%     59.09% # Class of executed instruction
system.cpu3.op_class::SimdFloatAlu                  0      0.00%     59.09% # Class of executed instruction
system.cpu3.op_class::SimdFloatCmp                  0      0.00%     59.09% # Class of executed instruction
system.cpu3.op_class::SimdFloatCvt                  0      0.00%     59.09% # Class of executed instruction
system.cpu3.op_class::SimdFloatDiv                  0      0.00%     59.09% # Class of executed instruction
system.cpu3.op_class::SimdFloatMisc                 0      0.00%     59.09% # Class of executed instruction
system.cpu3.op_class::SimdFloatMult                 2      9.09%     68.18% # Class of executed instruction
system.cpu3.op_class::SimdFloatMultAcc              0      0.00%     68.18% # Class of executed instruction
system.cpu3.op_class::SimdFloatSqrt                 0      0.00%     68.18% # Class of executed instruction
system.cpu3.op_class::SimdReduceAdd                 0      0.00%     68.18% # Class of executed instruction
system.cpu3.op_class::SimdReduceAlu                 0      0.00%     68.18% # Class of executed instruction
system.cpu3.op_class::SimdReduceCmp                 0      0.00%     68.18% # Class of executed instruction
system.cpu3.op_class::SimdFloatReduceAdd            0      0.00%     68.18% # Class of executed instruction
system.cpu3.op_class::SimdFloatReduceCmp            0      0.00%     68.18% # Class of executed instruction
system.cpu3.op_class::SimdAes                       0      0.00%     68.18% # Class of executed instruction
system.cpu3.op_class::SimdAesMix                    0      0.00%     68.18% # Class of executed instruction
system.cpu3.op_class::SimdSha1Hash                  0      0.00%     68.18% # Class of executed instruction
system.cpu3.op_class::SimdSha1Hash2                 0      0.00%     68.18% # Class of executed instruction
system.cpu3.op_class::SimdSha256Hash                0      0.00%     68.18% # Class of executed instruction
system.cpu3.op_class::SimdSha256Hash2               0      0.00%     68.18% # Class of executed instruction
system.cpu3.op_class::SimdShaSigma2                 0      0.00%     68.18% # Class of executed instruction
system.cpu3.op_class::SimdShaSigma3                 0      0.00%     68.18% # Class of executed instruction
system.cpu3.op_class::SimdPredAlu                   0      0.00%     68.18% # Class of executed instruction
system.cpu3.op_class::MemRead                       2      9.09%     77.27% # Class of executed instruction
system.cpu3.op_class::MemWrite                      0      0.00%     77.27% # Class of executed instruction
system.cpu3.op_class::FloatMemRead                  4     18.18%     95.45% # Class of executed instruction
system.cpu3.op_class::FloatMemWrite                 1      4.55%    100.00% # Class of executed instruction
system.cpu3.op_class::IprAccess                     0      0.00%    100.00% # Class of executed instruction
system.cpu3.op_class::InstPrefetch                  0      0.00%    100.00% # Class of executed instruction
system.cpu3.op_class::total                        22                       # Class of executed instruction
system.cpu3.workload.numSyscalls                    0                       # Number of system calls
system.l3bus.snoop_filter.hit_multi_requests            0                       # Number of requests hitting in the snoop filter with multiple (>1) holders of the requested data.
system.l3bus.snoop_filter.hit_multi_snoops            0                       # Number of snoops hitting in the snoop filter with multiple (>1) holders of the requested data.
system.l3bus.snoop_filter.hit_single_requests      7482427                       # Number of requests hitting in the snoop filter with a single holder of the requested data.
system.l3bus.snoop_filter.hit_single_snoops            5                       # Number of snoops hitting in the snoop filter with a single holder of the requested data.
system.l3bus.snoop_filter.tot_requests       15034654                       # Total number of requests made to the snoop filter.
system.l3bus.snoop_filter.tot_snoops                5                       # Total number of snoops made to the snoop filter.
system.membus.snoop_filter.hit_multi_requests            0                       # Number of requests hitting in the snoop filter with multiple (>1) holders of the requested data.
system.membus.snoop_filter.hit_multi_snoops            0                       # Number of snoops hitting in the snoop filter with multiple (>1) holders of the requested data.
system.membus.snoop_filter.hit_single_requests      4723318                       # Number of requests hitting in the snoop filter with a single holder of the requested data.
system.membus.snoop_filter.hit_single_snoops            0                       # Number of snoops hitting in the snoop filter with a single holder of the requested data.
system.membus.snoop_filter.tot_requests       9518101                       # Total number of requests made to the snoop filter.
system.membus.snoop_filter.tot_snoops               0                       # Total number of snoops made to the snoop filter.
system.switch_cpus0.cc_regfile_reads        130683141                       # number of cc regfile reads
system.switch_cpus0.cc_regfile_writes        97911712                       # number of cc regfile writes
system.switch_cpus0.committedInsts          249940184                       # Number of Instructions Simulated
system.switch_cpus0.committedOps            412617736                       # Number of Ops (including micro ops) Simulated
system.switch_cpus0.cpi                      1.072499                       # CPI: Cycles Per Instruction
system.switch_cpus0.cpi_total                1.072499                       # CPI: Total CPI of All Threads
system.switch_cpus0.fp_regfile_reads        301953953                       # number of floating regfile reads
system.switch_cpus0.fp_regfile_writes       159530405                       # number of floating regfile writes
system.switch_cpus0.idleCycles                  93241                       # Total number of cycles that the CPU has spent unscheduled due to idling
system.switch_cpus0.iew.branchMispredicts        18999                       # Number of branch mispredicts detected at execute
system.switch_cpus0.iew.exec_branches        28469294                       # Number of branches executed
system.switch_cpus0.iew.exec_nop                    0                       # number of nop insts executed
system.switch_cpus0.iew.exec_rate            1.540771                       # Inst execution rate
system.switch_cpus0.iew.exec_refs            96896760                       # number of memory reference insts executed
system.switch_cpus0.iew.exec_stores          27531872                       # Number of stores executed
system.switch_cpus0.iew.exec_swp                    0                       # number of swp insts executed
system.switch_cpus0.iew.iewBlockCycles       52349884                       # Number of cycles IEW is blocking
system.switch_cpus0.iew.iewDispLoadInsts     69409135                       # Number of dispatched load instructions
system.switch_cpus0.iew.iewDispNonSpecInsts            3                       # Number of dispatched non-speculative instructions
system.switch_cpus0.iew.iewDispSquashedInsts          530                       # Number of squashed instructions skipped by dispatch
system.switch_cpus0.iew.iewDispStoreInsts     27588314                       # Number of dispatched store instructions
system.switch_cpus0.iew.iewDispatchedInsts    413326874                       # Number of instructions dispatched to IQ
system.switch_cpus0.iew.iewExecLoadInsts     69364888                       # Number of load instructions executed
system.switch_cpus0.iew.iewExecSquashedInsts        56241                       # Number of squashed instructions skipped in execute
system.switch_cpus0.iew.iewExecutedInsts    413019881                       # Number of executed instructions
system.switch_cpus0.iew.iewIQFullEvents        149071                       # Number of times the IQ has become full, causing a stall
system.switch_cpus0.iew.iewIdleCycles               0                       # Number of cycles IEW is idle
system.switch_cpus0.iew.iewLSQFullEvents     23760723                       # Number of times the LSQ has become full, causing a stall
system.switch_cpus0.iew.iewSquashCycles         20781                       # Number of cycles IEW is squashing
system.switch_cpus0.iew.iewUnblockCycles     24027888                       # Number of cycles IEW is unblocking
system.switch_cpus0.iew.memOrderViolationEvents         2240                       # Number of memory order violations
system.switch_cpus0.iew.predictedNotTakenIncorrect         6323                       # Number of branches that were predicted not taken incorrectly
system.switch_cpus0.iew.predictedTakenIncorrect        12676                       # Number of branches that were predicted taken incorrectly
system.switch_cpus0.iew.wb_consumers        507855600                       # num instructions consuming a value
system.switch_cpus0.iew.wb_count            412977141                       # cumulative count of insts written-back
system.switch_cpus0.iew.wb_fanout            0.602665                       # average fanout of values written-back
system.switch_cpus0.iew.wb_producers        306066907                       # num instructions producing a value
system.switch_cpus0.iew.wb_rate              1.540611                       # insts written-back per cycle
system.switch_cpus0.iew.wb_sent             412996038                       # cumulative count of insts sent to commit
system.switch_cpus0.int_regfile_reads       405383695                       # number of integer regfile reads
system.switch_cpus0.int_regfile_writes      190870930                       # number of integer regfile writes
system.switch_cpus0.ipc                      0.932402                       # IPC: Instructions Per Cycle
system.switch_cpus0.ipc_total                0.932402                       # IPC: Total IPC of All Threads
system.switch_cpus0.iq.FU_type_0::No_OpClass        11925      0.00%      0.00% # Type of FU issued
system.switch_cpus0.iq.FU_type_0::IntAlu    221743054     53.68%     53.68% # Type of FU issued
system.switch_cpus0.iq.FU_type_0::IntMult        17878      0.00%     53.69% # Type of FU issued
system.switch_cpus0.iq.FU_type_0::IntDiv            0      0.00%     53.69% # Type of FU issued
system.switch_cpus0.iq.FU_type_0::FloatAdd     12493251      3.02%     56.71% # Type of FU issued
system.switch_cpus0.iq.FU_type_0::FloatCmp            0      0.00%     56.71% # Type of FU issued
system.switch_cpus0.iq.FU_type_0::FloatCvt            0      0.00%     56.71% # Type of FU issued
system.switch_cpus0.iq.FU_type_0::FloatMult            0      0.00%     56.71% # Type of FU issued
system.switch_cpus0.iq.FU_type_0::FloatMultAcc            0      0.00%     56.71% # Type of FU issued
system.switch_cpus0.iq.FU_type_0::FloatDiv            0      0.00%     56.71% # Type of FU issued
system.switch_cpus0.iq.FU_type_0::FloatMisc            0      0.00%     56.71% # Type of FU issued
system.switch_cpus0.iq.FU_type_0::FloatSqrt            0      0.00%     56.71% # Type of FU issued
system.switch_cpus0.iq.FU_type_0::SimdAdd            0      0.00%     56.71% # Type of FU issued
system.switch_cpus0.iq.FU_type_0::SimdAddAcc            0      0.00%     56.71% # Type of FU issued
system.switch_cpus0.iq.FU_type_0::SimdAlu      8954958      2.17%     58.88% # Type of FU issued
system.switch_cpus0.iq.FU_type_0::SimdCmp            0      0.00%     58.88% # Type of FU issued
system.switch_cpus0.iq.FU_type_0::SimdCvt            0      0.00%     58.88% # Type of FU issued
system.switch_cpus0.iq.FU_type_0::SimdMisc      5330313      1.29%     60.17% # Type of FU issued
system.switch_cpus0.iq.FU_type_0::SimdMult            0      0.00%     60.17% # Type of FU issued
system.switch_cpus0.iq.FU_type_0::SimdMultAcc            0      0.00%     60.17% # Type of FU issued
system.switch_cpus0.iq.FU_type_0::SimdShift            0      0.00%     60.17% # Type of FU issued
system.switch_cpus0.iq.FU_type_0::SimdShiftAcc            0      0.00%     60.17% # Type of FU issued
system.switch_cpus0.iq.FU_type_0::SimdDiv            0      0.00%     60.17% # Type of FU issued
system.switch_cpus0.iq.FU_type_0::SimdSqrt            0      0.00%     60.17% # Type of FU issued
system.switch_cpus0.iq.FU_type_0::SimdFloatAdd     30056526      7.28%     67.45% # Type of FU issued
system.switch_cpus0.iq.FU_type_0::SimdFloatAlu            0      0.00%     67.45% # Type of FU issued
system.switch_cpus0.iq.FU_type_0::SimdFloatCmp       376832      0.09%     67.54% # Type of FU issued
system.switch_cpus0.iq.FU_type_0::SimdFloatCvt      6592363      1.60%     69.13% # Type of FU issued
system.switch_cpus0.iq.FU_type_0::SimdFloatDiv      3033975      0.73%     69.87% # Type of FU issued
system.switch_cpus0.iq.FU_type_0::SimdFloatMisc            0      0.00%     69.87% # Type of FU issued
system.switch_cpus0.iq.FU_type_0::SimdFloatMult     27030630      6.54%     76.41% # Type of FU issued
system.switch_cpus0.iq.FU_type_0::SimdFloatMultAcc            0      0.00%     76.41% # Type of FU issued
system.switch_cpus0.iq.FU_type_0::SimdFloatSqrt       505976      0.12%     76.53% # Type of FU issued
system.switch_cpus0.iq.FU_type_0::SimdReduceAdd            0      0.00%     76.53% # Type of FU issued
system.switch_cpus0.iq.FU_type_0::SimdReduceAlu            0      0.00%     76.53% # Type of FU issued
system.switch_cpus0.iq.FU_type_0::SimdReduceCmp            0      0.00%     76.53% # Type of FU issued
system.switch_cpus0.iq.FU_type_0::SimdFloatReduceAdd            0      0.00%     76.53% # Type of FU issued
system.switch_cpus0.iq.FU_type_0::SimdFloatReduceCmp            0      0.00%     76.53% # Type of FU issued
system.switch_cpus0.iq.FU_type_0::SimdAes            0      0.00%     76.53% # Type of FU issued
system.switch_cpus0.iq.FU_type_0::SimdAesMix            0      0.00%     76.53% # Type of FU issued
system.switch_cpus0.iq.FU_type_0::SimdSha1Hash            0      0.00%     76.53% # Type of FU issued
system.switch_cpus0.iq.FU_type_0::SimdSha1Hash2            0      0.00%     76.53% # Type of FU issued
system.switch_cpus0.iq.FU_type_0::SimdSha256Hash            0      0.00%     76.53% # Type of FU issued
system.switch_cpus0.iq.FU_type_0::SimdSha256Hash2            0      0.00%     76.53% # Type of FU issued
system.switch_cpus0.iq.FU_type_0::SimdShaSigma2            0      0.00%     76.53% # Type of FU issued
system.switch_cpus0.iq.FU_type_0::SimdShaSigma3            0      0.00%     76.53% # Type of FU issued
system.switch_cpus0.iq.FU_type_0::SimdPredAlu            0      0.00%     76.53% # Type of FU issued
system.switch_cpus0.iq.FU_type_0::MemRead     26771300      6.48%     83.02% # Type of FU issued
system.switch_cpus0.iq.FU_type_0::MemWrite     13497525      3.27%     86.28% # Type of FU issued
system.switch_cpus0.iq.FU_type_0::FloatMemRead     42611829     10.32%     96.60% # Type of FU issued
system.switch_cpus0.iq.FU_type_0::FloatMemWrite     14047791      3.40%    100.00% # Type of FU issued
system.switch_cpus0.iq.FU_type_0::IprAccess            0      0.00%    100.00% # Type of FU issued
system.switch_cpus0.iq.FU_type_0::InstPrefetch            0      0.00%    100.00% # Type of FU issued
system.switch_cpus0.iq.FU_type_0::total     413076126                       # Type of FU issued
system.switch_cpus0.iq.fp_alu_accesses      187446440                       # Number of floating point alu accesses
system.switch_cpus0.iq.fp_inst_queue_reads    372981229                       # Number of floating instruction queue reads
system.switch_cpus0.iq.fp_inst_queue_wakeup_accesses    185487047                       # Number of floating instruction queue wakeup accesses
system.switch_cpus0.iq.fp_inst_queue_writes    185941738                       # Number of floating instruction queue writes
system.switch_cpus0.iq.fu_busy_cnt            6576190                       # FU busy when requested
system.switch_cpus0.iq.fu_busy_rate          0.015920                       # FU busy rate (busy events/executed inst)
system.switch_cpus0.iq.fu_full::No_OpClass            0      0.00%      0.00% # attempts to use FU when none available
system.switch_cpus0.iq.fu_full::IntAlu        2871553     43.67%     43.67% # attempts to use FU when none available
system.switch_cpus0.iq.fu_full::IntMult             0      0.00%     43.67% # attempts to use FU when none available
system.switch_cpus0.iq.fu_full::IntDiv              0      0.00%     43.67% # attempts to use FU when none available
system.switch_cpus0.iq.fu_full::FloatAdd          484      0.01%     43.67% # attempts to use FU when none available
system.switch_cpus0.iq.fu_full::FloatCmp            0      0.00%     43.67% # attempts to use FU when none available
system.switch_cpus0.iq.fu_full::FloatCvt            0      0.00%     43.67% # attempts to use FU when none available
system.switch_cpus0.iq.fu_full::FloatMult            0      0.00%     43.67% # attempts to use FU when none available
system.switch_cpus0.iq.fu_full::FloatMultAcc            0      0.00%     43.67% # attempts to use FU when none available
system.switch_cpus0.iq.fu_full::FloatDiv            0      0.00%     43.67% # attempts to use FU when none available
system.switch_cpus0.iq.fu_full::FloatMisc            0      0.00%     43.67% # attempts to use FU when none available
system.switch_cpus0.iq.fu_full::FloatSqrt            0      0.00%     43.67% # attempts to use FU when none available
system.switch_cpus0.iq.fu_full::SimdAdd             0      0.00%     43.67% # attempts to use FU when none available
system.switch_cpus0.iq.fu_full::SimdAddAcc            0      0.00%     43.67% # attempts to use FU when none available
system.switch_cpus0.iq.fu_full::SimdAlu        117114      1.78%     45.45% # attempts to use FU when none available
system.switch_cpus0.iq.fu_full::SimdCmp             0      0.00%     45.45% # attempts to use FU when none available
system.switch_cpus0.iq.fu_full::SimdCvt             0      0.00%     45.45% # attempts to use FU when none available
system.switch_cpus0.iq.fu_full::SimdMisc            0      0.00%     45.45% # attempts to use FU when none available
system.switch_cpus0.iq.fu_full::SimdMult            0      0.00%     45.45% # attempts to use FU when none available
system.switch_cpus0.iq.fu_full::SimdMultAcc            0      0.00%     45.45% # attempts to use FU when none available
system.switch_cpus0.iq.fu_full::SimdShift            0      0.00%     45.45% # attempts to use FU when none available
system.switch_cpus0.iq.fu_full::SimdShiftAcc            0      0.00%     45.45% # attempts to use FU when none available
system.switch_cpus0.iq.fu_full::SimdDiv             0      0.00%     45.45% # attempts to use FU when none available
system.switch_cpus0.iq.fu_full::SimdSqrt            0      0.00%     45.45% # attempts to use FU when none available
system.switch_cpus0.iq.fu_full::SimdFloatAdd       162883      2.48%     47.93% # attempts to use FU when none available
system.switch_cpus0.iq.fu_full::SimdFloatAlu            0      0.00%     47.93% # attempts to use FU when none available
system.switch_cpus0.iq.fu_full::SimdFloatCmp            0      0.00%     47.93% # attempts to use FU when none available
system.switch_cpus0.iq.fu_full::SimdFloatCvt          519      0.01%     47.94% # attempts to use FU when none available
system.switch_cpus0.iq.fu_full::SimdFloatDiv        19384      0.29%     48.23% # attempts to use FU when none available
system.switch_cpus0.iq.fu_full::SimdFloatMisc            0      0.00%     48.23% # attempts to use FU when none available
system.switch_cpus0.iq.fu_full::SimdFloatMult       237924      3.62%     51.85% # attempts to use FU when none available
system.switch_cpus0.iq.fu_full::SimdFloatMultAcc            0      0.00%     51.85% # attempts to use FU when none available
system.switch_cpus0.iq.fu_full::SimdFloatSqrt          624      0.01%     51.86% # attempts to use FU when none available
system.switch_cpus0.iq.fu_full::SimdReduceAdd            0      0.00%     51.86% # attempts to use FU when none available
system.switch_cpus0.iq.fu_full::SimdReduceAlu            0      0.00%     51.86% # attempts to use FU when none available
system.switch_cpus0.iq.fu_full::SimdReduceCmp            0      0.00%     51.86% # attempts to use FU when none available
system.switch_cpus0.iq.fu_full::SimdFloatReduceAdd            0      0.00%     51.86% # attempts to use FU when none available
system.switch_cpus0.iq.fu_full::SimdFloatReduceCmp            0      0.00%     51.86% # attempts to use FU when none available
system.switch_cpus0.iq.fu_full::SimdAes             0      0.00%     51.86% # attempts to use FU when none available
system.switch_cpus0.iq.fu_full::SimdAesMix            0      0.00%     51.86% # attempts to use FU when none available
system.switch_cpus0.iq.fu_full::SimdSha1Hash            0      0.00%     51.86% # attempts to use FU when none available
system.switch_cpus0.iq.fu_full::SimdSha1Hash2            0      0.00%     51.86% # attempts to use FU when none available
system.switch_cpus0.iq.fu_full::SimdSha256Hash            0      0.00%     51.86% # attempts to use FU when none available
system.switch_cpus0.iq.fu_full::SimdSha256Hash2            0      0.00%     51.86% # attempts to use FU when none available
system.switch_cpus0.iq.fu_full::SimdShaSigma2            0      0.00%     51.86% # attempts to use FU when none available
system.switch_cpus0.iq.fu_full::SimdShaSigma3            0      0.00%     51.86% # attempts to use FU when none available
system.switch_cpus0.iq.fu_full::SimdPredAlu            0      0.00%     51.86% # attempts to use FU when none available
system.switch_cpus0.iq.fu_full::MemRead       1293918     19.68%     71.54% # attempts to use FU when none available
system.switch_cpus0.iq.fu_full::MemWrite       547547      8.33%     79.86% # attempts to use FU when none available
system.switch_cpus0.iq.fu_full::FloatMemRead      1033453     15.72%     95.58% # attempts to use FU when none available
system.switch_cpus0.iq.fu_full::FloatMemWrite       290787      4.42%    100.00% # attempts to use FU when none available
system.switch_cpus0.iq.fu_full::IprAccess            0      0.00%    100.00% # attempts to use FU when none available
system.switch_cpus0.iq.fu_full::InstPrefetch            0      0.00%    100.00% # attempts to use FU when none available
system.switch_cpus0.iq.int_alu_accesses     232193951                       # Number of integer alu accesses
system.switch_cpus0.iq.int_inst_queue_reads    727729728                       # Number of integer instruction queue reads
system.switch_cpus0.iq.int_inst_queue_wakeup_accesses    227490094                       # Number of integer instruction queue wakeup accesses
system.switch_cpus0.iq.int_inst_queue_writes    228096403                       # Number of integer instruction queue writes
system.switch_cpus0.iq.iqInstsAdded         413326865                       # Number of instructions added to the IQ (excludes non-spec)
system.switch_cpus0.iq.iqInstsIssued        413076126                       # Number of instructions issued
system.switch_cpus0.iq.iqNonSpecInstsAdded            9                       # Number of non-speculative instructions added to the IQ
system.switch_cpus0.iq.iqSquashedInstsExamined       709050                       # Number of squashed instructions iterated over during squash; mainly for profiling
system.switch_cpus0.iq.iqSquashedInstsIssued        15210                       # Number of squashed instructions issued
system.switch_cpus0.iq.iqSquashedNonSpecRemoved            9                       # Number of squashed non-spec instructions that were removed
system.switch_cpus0.iq.iqSquashedOperandsExamined      1102641                       # Number of squashed operands that are examined and possibly removed from graph
system.switch_cpus0.iq.issued_per_cycle::samples    267967309                       # Number of insts issued each cycle
system.switch_cpus0.iq.issued_per_cycle::mean     1.541517                       # Number of insts issued each cycle
system.switch_cpus0.iq.issued_per_cycle::stdev     2.691409                       # Number of insts issued each cycle
system.switch_cpus0.iq.issued_per_cycle::underflows            0      0.00%      0.00% # Number of insts issued each cycle
system.switch_cpus0.iq.issued_per_cycle::0    189804376     70.83%     70.83% # Number of insts issued each cycle
system.switch_cpus0.iq.issued_per_cycle::1      5942441      2.22%     73.05% # Number of insts issued each cycle
system.switch_cpus0.iq.issued_per_cycle::2      6019506      2.25%     75.30% # Number of insts issued each cycle
system.switch_cpus0.iq.issued_per_cycle::3      6442977      2.40%     77.70% # Number of insts issued each cycle
system.switch_cpus0.iq.issued_per_cycle::4      9591905      3.58%     81.28% # Number of insts issued each cycle
system.switch_cpus0.iq.issued_per_cycle::5     10774321      4.02%     85.30% # Number of insts issued each cycle
system.switch_cpus0.iq.issued_per_cycle::6     10020442      3.74%     89.04% # Number of insts issued each cycle
system.switch_cpus0.iq.issued_per_cycle::7     11566863      4.32%     93.36% # Number of insts issued each cycle
system.switch_cpus0.iq.issued_per_cycle::8     17804478      6.64%    100.00% # Number of insts issued each cycle
system.switch_cpus0.iq.issued_per_cycle::overflows            0      0.00%    100.00% # Number of insts issued each cycle
system.switch_cpus0.iq.issued_per_cycle::min_value            0                       # Number of insts issued each cycle
system.switch_cpus0.iq.issued_per_cycle::max_value            8                       # Number of insts issued each cycle
system.switch_cpus0.iq.issued_per_cycle::total    267967309                       # Number of insts issued each cycle
system.switch_cpus0.iq.rate                  1.540981                       # Inst issue rate
system.switch_cpus0.iq.vec_alu_accesses             0                       # Number of vector alu accesses
system.switch_cpus0.iq.vec_inst_queue_reads            0                       # Number of vector instruction queue reads
system.switch_cpus0.iq.vec_inst_queue_wakeup_accesses            0                       # Number of vector instruction queue wakeup accesses
system.switch_cpus0.iq.vec_inst_queue_writes            0                       # Number of vector instruction queue writes
system.switch_cpus0.memDep0.conflictingLoads      1682537                       # Number of conflicting loads.
system.switch_cpus0.memDep0.conflictingStores      1401109                       # Number of conflicting stores.
system.switch_cpus0.memDep0.insertedLoads     69409135                       # Number of loads inserted to the mem dependence unit.
system.switch_cpus0.memDep0.insertedStores     27588314                       # Number of stores inserted to the mem dependence unit.
system.switch_cpus0.misc_regfile_reads      170927142                       # number of misc regfile reads
system.switch_cpus0.misc_regfile_writes             1                       # number of misc regfile writes
system.switch_cpus0.numCycles               268060550                       # number of cpu cycles simulated
system.switch_cpus0.numWorkItemsCompleted            0                       # number of work items this cpu completed
system.switch_cpus0.numWorkItemsStarted             0                       # number of work items this cpu started
system.switch_cpus0.timesIdled                    371                       # Number of times that the entire CPU went into an idle state and unscheduled itself
system.switch_cpus1.cc_regfile_reads        130683350                       # number of cc regfile reads
system.switch_cpus1.cc_regfile_writes        97911818                       # number of cc regfile writes
system.switch_cpus1.committedInsts          249940130                       # Number of Instructions Simulated
system.switch_cpus1.committedOps            412617642                       # Number of Ops (including micro ops) Simulated
system.switch_cpus1.cpi                      1.072499                       # CPI: Cycles Per Instruction
system.switch_cpus1.cpi_total                1.072499                       # CPI: Total CPI of All Threads
system.switch_cpus1.fp_regfile_reads        301953864                       # number of floating regfile reads
system.switch_cpus1.fp_regfile_writes       159530389                       # number of floating regfile writes
system.switch_cpus1.idleCycles                 101213                       # Total number of cycles that the CPU has spent unscheduled due to idling
system.switch_cpus1.iew.branchMispredicts        18983                       # Number of branch mispredicts detected at execute
system.switch_cpus1.iew.exec_branches        28469323                       # Number of branches executed
system.switch_cpus1.iew.exec_nop                    0                       # number of nop insts executed
system.switch_cpus1.iew.exec_rate            1.540771                       # Inst execution rate
system.switch_cpus1.iew.exec_refs            96896769                       # number of memory reference insts executed
system.switch_cpus1.iew.exec_stores          27531786                       # Number of stores executed
system.switch_cpus1.iew.exec_swp                    0                       # number of swp insts executed
system.switch_cpus1.iew.iewBlockCycles       52295981                       # Number of cycles IEW is blocking
system.switch_cpus1.iew.iewDispLoadInsts     69409315                       # Number of dispatched load instructions
system.switch_cpus1.iew.iewDispNonSpecInsts            3                       # Number of dispatched non-speculative instructions
system.switch_cpus1.iew.iewDispSquashedInsts          535                       # Number of squashed instructions skipped by dispatch
system.switch_cpus1.iew.iewDispStoreInsts     27588287                       # Number of dispatched store instructions
system.switch_cpus1.iew.iewDispatchedInsts    413326955                       # Number of instructions dispatched to IQ
system.switch_cpus1.iew.iewExecLoadInsts     69364983                       # Number of load instructions executed
system.switch_cpus1.iew.iewExecSquashedInsts        56224                       # Number of squashed instructions skipped in execute
system.switch_cpus1.iew.iewExecutedInsts    413019904                       # Number of executed instructions
system.switch_cpus1.iew.iewIQFullEvents        148403                       # Number of times the IQ has become full, causing a stall
system.switch_cpus1.iew.iewIdleCycles               0                       # Number of cycles IEW is idle
system.switch_cpus1.iew.iewLSQFullEvents     23481660                       # Number of times the LSQ has become full, causing a stall
system.switch_cpus1.iew.iewSquashCycles         20778                       # Number of cycles IEW is squashing
system.switch_cpus1.iew.iewUnblockCycles     23747597                       # Number of cycles IEW is unblocking
system.switch_cpus1.iew.memOrderViolationEvents         2243                       # Number of memory order violations
system.switch_cpus1.iew.predictedNotTakenIncorrect         6307                       # Number of branches that were predicted not taken incorrectly
system.switch_cpus1.iew.predictedTakenIncorrect        12676                       # Number of branches that were predicted taken incorrectly
system.switch_cpus1.iew.wb_consumers        507855948                       # num instructions consuming a value
system.switch_cpus1.iew.wb_count            412977125                       # cumulative count of insts written-back
system.switch_cpus1.iew.wb_fanout            0.602664                       # average fanout of values written-back
system.switch_cpus1.iew.wb_producers        306066659                       # num instructions producing a value
system.switch_cpus1.iew.wb_rate              1.540611                       # insts written-back per cycle
system.switch_cpus1.iew.wb_sent             412996076                       # cumulative count of insts sent to commit
system.switch_cpus1.int_regfile_reads       405383825                       # number of integer regfile reads
system.switch_cpus1.int_regfile_writes      190871012                       # number of integer regfile writes
system.switch_cpus1.ipc                      0.932402                       # IPC: Instructions Per Cycle
system.switch_cpus1.ipc_total                0.932402                       # IPC: Total IPC of All Threads
system.switch_cpus1.iq.FU_type_0::No_OpClass        11923      0.00%      0.00% # Type of FU issued
system.switch_cpus1.iq.FU_type_0::IntAlu    221743058     53.68%     53.68% # Type of FU issued
system.switch_cpus1.iq.FU_type_0::IntMult        17880      0.00%     53.69% # Type of FU issued
system.switch_cpus1.iq.FU_type_0::IntDiv            0      0.00%     53.69% # Type of FU issued
system.switch_cpus1.iq.FU_type_0::FloatAdd     12493250      3.02%     56.71% # Type of FU issued
system.switch_cpus1.iq.FU_type_0::FloatCmp            0      0.00%     56.71% # Type of FU issued
system.switch_cpus1.iq.FU_type_0::FloatCvt            0      0.00%     56.71% # Type of FU issued
system.switch_cpus1.iq.FU_type_0::FloatMult            0      0.00%     56.71% # Type of FU issued
system.switch_cpus1.iq.FU_type_0::FloatMultAcc            0      0.00%     56.71% # Type of FU issued
system.switch_cpus1.iq.FU_type_0::FloatDiv            0      0.00%     56.71% # Type of FU issued
system.switch_cpus1.iq.FU_type_0::FloatMisc            0      0.00%     56.71% # Type of FU issued
system.switch_cpus1.iq.FU_type_0::FloatSqrt            0      0.00%     56.71% # Type of FU issued
system.switch_cpus1.iq.FU_type_0::SimdAdd            0      0.00%     56.71% # Type of FU issued
system.switch_cpus1.iq.FU_type_0::SimdAddAcc            0      0.00%     56.71% # Type of FU issued
system.switch_cpus1.iq.FU_type_0::SimdAlu      8954943      2.17%     58.88% # Type of FU issued
system.switch_cpus1.iq.FU_type_0::SimdCmp            0      0.00%     58.88% # Type of FU issued
system.switch_cpus1.iq.FU_type_0::SimdCvt            0      0.00%     58.88% # Type of FU issued
system.switch_cpus1.iq.FU_type_0::SimdMisc      5330319      1.29%     60.17% # Type of FU issued
system.switch_cpus1.iq.FU_type_0::SimdMult            0      0.00%     60.17% # Type of FU issued
system.switch_cpus1.iq.FU_type_0::SimdMultAcc            0      0.00%     60.17% # Type of FU issued
system.switch_cpus1.iq.FU_type_0::SimdShift            0      0.00%     60.17% # Type of FU issued
system.switch_cpus1.iq.FU_type_0::SimdShiftAcc            0      0.00%     60.17% # Type of FU issued
system.switch_cpus1.iq.FU_type_0::SimdDiv            0      0.00%     60.17% # Type of FU issued
system.switch_cpus1.iq.FU_type_0::SimdSqrt            0      0.00%     60.17% # Type of FU issued
system.switch_cpus1.iq.FU_type_0::SimdFloatAdd     30056498      7.28%     67.45% # Type of FU issued
system.switch_cpus1.iq.FU_type_0::SimdFloatAlu            0      0.00%     67.45% # Type of FU issued
system.switch_cpus1.iq.FU_type_0::SimdFloatCmp       376832      0.09%     67.54% # Type of FU issued
system.switch_cpus1.iq.FU_type_0::SimdFloatCvt      6592395      1.60%     69.13% # Type of FU issued
system.switch_cpus1.iq.FU_type_0::SimdFloatDiv      3033975      0.73%     69.87% # Type of FU issued
system.switch_cpus1.iq.FU_type_0::SimdFloatMisc            0      0.00%     69.87% # Type of FU issued
system.switch_cpus1.iq.FU_type_0::SimdFloatMult     27030653      6.54%     76.41% # Type of FU issued
system.switch_cpus1.iq.FU_type_0::SimdFloatMultAcc            0      0.00%     76.41% # Type of FU issued
system.switch_cpus1.iq.FU_type_0::SimdFloatSqrt       505976      0.12%     76.53% # Type of FU issued
system.switch_cpus1.iq.FU_type_0::SimdReduceAdd            0      0.00%     76.53% # Type of FU issued
system.switch_cpus1.iq.FU_type_0::SimdReduceAlu            0      0.00%     76.53% # Type of FU issued
system.switch_cpus1.iq.FU_type_0::SimdReduceCmp            0      0.00%     76.53% # Type of FU issued
system.switch_cpus1.iq.FU_type_0::SimdFloatReduceAdd            0      0.00%     76.53% # Type of FU issued
system.switch_cpus1.iq.FU_type_0::SimdFloatReduceCmp            0      0.00%     76.53% # Type of FU issued
[...]
system.switch_cpus3.commit.numCommittedDist::0    195968068     73.16%     73.16% # Number of insts commited each cycle
system.switch_cpus3.commit.numCommittedDist::1     11959119      4.46%     77.62% # Number of insts commited each cycle
system.switch_cpus3.commit.numCommittedDist::2      4543725      1.70%     79.32% # Number of insts commited each cycle
system.switch_cpus3.commit.numCommittedDist::3      5270656      1.97%     81.29% # Number of insts commited each cycle
system.switch_cpus3.commit.numCommittedDist::4      3247037      1.21%     82.50% # Number of insts commited each cycle
system.switch_cpus3.commit.numCommittedDist::5      2149194      0.80%     83.30% # Number of insts commited each cycle
system.switch_cpus3.commit.numCommittedDist::6      1646035      0.61%     83.92% # Number of insts commited each cycle
system.switch_cpus3.commit.numCommittedDist::7      2395467      0.89%     84.81% # Number of insts commited each cycle
system.switch_cpus3.commit.numCommittedDist::8     40685053     15.19%    100.00% # Number of insts commited each cycle
system.switch_cpus3.commit.numCommittedDist::overflows            0      0.00%    100.00% # Number of insts commited each cycle
system.switch_cpus3.commit.numCommittedDist::min_value            0                       # Number of insts commited each cycle
system.switch_cpus3.commit.numCommittedDist::max_value            8                       # Number of insts commited each cycle
system.switch_cpus3.commit.numCommittedDist::total    267864354                       # Number of insts commited each cycle
system.switch_cpus3.commit.instsCommitted    250000001                       # Number of instructions committed
system.switch_cpus3.commit.opsCommitted     412717558                       # Number of ops (including micro ops) committed
system.switch_cpus3.commit.memRefs           96736354                       # Number of memory references committed
system.switch_cpus3.commit.loads             69246941                       # Number of loads committed
system.switch_cpus3.commit.amos                     0                       # Number of atomic instructions committed
system.switch_cpus3.commit.membars                  0                       # Number of memory barriers committed
system.switch_cpus3.commit.branches          28461135                       # Number of branches committed
system.switch_cpus3.commit.vector                   0                       # Number of committed Vector instructions.
system.switch_cpus3.commit.floating         185446675                       # Number of committed floating point instructions.
system.switch_cpus3.commit.integer          289170534                       # Number of committed integer instructions.
system.switch_cpus3.commit.functionCalls      2180879                       # Number of function calls committed.
system.switch_cpus3.commit.committedInstType_0::No_OpClass        11422      0.00%      0.00% # Class of committed instruction
system.switch_cpus3.commit.committedInstType_0::IntAlu    221582523     53.69%     53.69% # Class of committed instruction
system.switch_cpus3.commit.committedInstType_0::IntMult        17855      0.00%     53.70% # Class of committed instruction
system.switch_cpus3.commit.committedInstType_0::IntDiv            0      0.00%     53.70% # Class of committed instruction
system.switch_cpus3.commit.committedInstType_0::FloatAdd     12496939      3.03%     56.72% # Class of committed instruction
system.switch_cpus3.commit.committedInstType_0::FloatCmp            0      0.00%     56.72% # Class of committed instruction
system.switch_cpus3.commit.committedInstType_0::FloatCvt            0      0.00%     56.72% # Class of committed instruction
system.switch_cpus3.commit.committedInstType_0::FloatMult            0      0.00%     56.72% # Class of committed instruction
system.switch_cpus3.commit.committedInstType_0::FloatMultAcc            0      0.00%     56.72% # Class of committed instruction
system.switch_cpus3.commit.committedInstType_0::FloatDiv            0      0.00%     56.72% # Class of committed instruction
system.switch_cpus3.commit.committedInstType_0::FloatMisc            0      0.00%     56.72% # Class of committed instruction
system.switch_cpus3.commit.committedInstType_0::FloatSqrt            0      0.00%     56.72% # Class of committed instruction
system.switch_cpus3.commit.committedInstType_0::SimdAdd            0      0.00%     56.72% # Class of committed instruction
system.switch_cpus3.commit.committedInstType_0::SimdAddAcc            0      0.00%     56.72% # Class of committed instruction
system.switch_cpus3.commit.committedInstType_0::SimdAlu      8951504      2.17%     58.89% # Class of committed instruction
system.switch_cpus3.commit.committedInstType_0::SimdCmp            0      0.00%     58.89% # Class of committed instruction
system.switch_cpus3.commit.committedInstType_0::SimdCvt            0      0.00%     58.89% # Class of committed instruction
system.switch_cpus3.commit.committedInstType_0::SimdMisc      5331020      1.29%     60.18% # Class of committed instruction
system.switch_cpus3.commit.committedInstType_0::SimdMult            0      0.00%     60.18% # Class of committed instruction
system.switch_cpus3.commit.committedInstType_0::SimdMultAcc            0      0.00%     60.18% # Class of committed instruction
system.switch_cpus3.commit.committedInstType_0::SimdShift            0      0.00%     60.18% # Class of committed instruction
system.switch_cpus3.commit.committedInstType_0::SimdShiftAcc            0      0.00%     60.18% # Class of committed instruction
system.switch_cpus3.commit.committedInstType_0::SimdDiv            0      0.00%     60.18% # Class of committed instruction
system.switch_cpus3.commit.committedInstType_0::SimdSqrt            0      0.00%     60.18% # Class of committed instruction
system.switch_cpus3.commit.committedInstType_0::SimdFloatAdd     30057671      7.28%     67.47% # Class of committed instruction
system.switch_cpus3.commit.committedInstType_0::SimdFloatAlu            0      0.00%     67.47% # Class of committed instruction
system.switch_cpus3.commit.committedInstType_0::SimdFloatCmp       376832      0.09%     67.56% # Class of committed instruction
system.switch_cpus3.commit.committedInstType_0::SimdFloatCvt      6587606      1.60%     69.15% # Class of committed instruction
system.switch_cpus3.commit.committedInstType_0::SimdFloatDiv      3034039      0.74%     69.89% # Class of committed instruction
system.switch_cpus3.commit.committedInstType_0::SimdFloatMisc            0      0.00%     69.89% # Class of committed instruction
system.switch_cpus3.commit.committedInstType_0::SimdFloatMult     27027749      6.55%     76.44% # Class of committed instruction
system.switch_cpus3.commit.committedInstType_0::SimdFloatMultAcc            0      0.00%     76.44% # Class of committed instruction
system.switch_cpus3.commit.committedInstType_0::SimdFloatSqrt       506044      0.12%     76.56% # Class of committed instruction
system.switch_cpus3.commit.committedInstType_0::SimdReduceAdd            0      0.00%     76.56% # Class of committed instruction
system.switch_cpus3.commit.committedInstType_0::SimdReduceAlu            0      0.00%     76.56% # Class of committed instruction
system.switch_cpus3.commit.committedInstType_0::SimdReduceCmp            0      0.00%     76.56% # Class of committed instruction
system.switch_cpus3.commit.committedInstType_0::SimdFloatReduceAdd            0      0.00%     76.56% # Class of committed instruction
system.switch_cpus3.commit.committedInstType_0::SimdFloatReduceCmp            0      0.00%     76.56% # Class of committed instruction
system.switch_cpus3.commit.committedInstType_0::SimdAes            0      0.00%     76.56% # Class of committed instruction
system.switch_cpus3.commit.committedInstType_0::SimdAesMix            0      0.00%     76.56% # Class of committed instruction
system.switch_cpus3.commit.committedInstType_0::SimdSha1Hash            0      0.00%     76.56% # Class of committed instruction
system.switch_cpus3.commit.committedInstType_0::SimdSha1Hash2            0      0.00%     76.56% # Class of committed instruction
system.switch_cpus3.commit.committedInstType_0::SimdSha256Hash            0      0.00%     76.56% # Class of committed instruction
system.switch_cpus3.commit.committedInstType_0::SimdSha256Hash2            0      0.00%     76.56% # Class of committed instruction
system.switch_cpus3.commit.committedInstType_0::SimdShaSigma2            0      0.00%     76.56% # Class of committed instruction
system.switch_cpus3.commit.committedInstType_0::SimdShaSigma3            0      0.00%     76.56% # Class of committed instruction
system.switch_cpus3.commit.committedInstType_0::SimdPredAlu            0      0.00%     76.56% # Class of committed instruction
system.switch_cpus3.commit.committedInstType_0::MemRead     26698895      6.47%     83.03% # Class of committed instruction
system.switch_cpus3.commit.committedInstType_0::MemWrite     13453230      3.26%     86.29% # Class of committed instruction
system.switch_cpus3.commit.committedInstType_0::FloatMemRead     42548046     10.31%     96.60% # Class of committed instruction
system.switch_cpus3.commit.committedInstType_0::FloatMemWrite     14036183      3.40%    100.00% # Class of committed instruction
system.switch_cpus3.commit.committedInstType_0::IprAccess            0      0.00%    100.00% # Class of committed instruction
system.switch_cpus3.commit.committedInstType_0::InstPrefetch            0      0.00%    100.00% # Class of committed instruction
system.switch_cpus3.commit.committedInstType_0::total    412717558                       # Class of committed instruction
system.switch_cpus3.commit.commitEligibleSamples     40685053                       # number cycles where commit BW limit reached
system.switch_cpus3.decode.idleCycles         4123763                       # Number of cycles decode is idle
system.switch_cpus3.decode.blockedCycles    204032072                       # Number of cycles decode is blocked
system.switch_cpus3.decode.runCycles         54244129                       # Number of cycles decode is running
system.switch_cpus3.decode.unblockCycles      5541949                       # Number of cycles decode is unblocking
system.switch_cpus3.decode.squashCycles         20767                       # Number of cycles decode is squashing
system.switch_cpus3.decode.branchResolved      9251271                       # Number of times decode resolved a  branch
system.switch_cpus3.decode.branchMispred          128                       # Number of times decode detected a branch misprediction
system.switch_cpus3.decode.decodedInsts     413724274                       # Number of instructions handled by decode
system.switch_cpus3.decode.squashedInsts          657                       # Number of squashed instructions handled by decode
system.switch_cpus3.dtb.rdAccesses           69382376                       # TLB accesses on read requests
system.switch_cpus3.dtb.wrAccesses           27538779                       # TLB accesses on write requests
system.switch_cpus3.dtb.rdMisses              1092525                       # TLB misses on read requests
system.switch_cpus3.dtb.wrMisses                14186                       # TLB misses on write requests
system.switch_cpus3.dtb.walker.power_state.pwrStateResidencyTicks::UNDEFINED 15740521291431                       # Cumulative time (in ticks) in various power states
system.switch_cpus3.fetch.icacheStallCycles        78854                       # Number of cycles fetch is stalled on an Icache miss
system.switch_cpus3.fetch.insts             250966132                       # Number of instructions fetch has processed
system.switch_cpus3.fetch.branches           28545769                       # Number of branches that fetch encountered
system.switch_cpus3.fetch.predictedBranches     13751723                       # Number of branches that fetch has predicted taken
system.switch_cpus3.fetch.cycles            267862918                       # Number of cycles fetch has run and was not squashing or blocked
system.switch_cpus3.fetch.squashCycles          41788                       # Number of cycles fetch has spent squashing
system.switch_cpus3.fetch.miscStallCycles            3                       # Number of cycles fetch has spent waiting on interrupts,or bad addresses, or out of MSHRs
system.switch_cpus3.fetch.pendingTrapStallCycles           21                       # Number of stall cycles due to pending traps
system.switch_cpus3.fetch.cacheLines         30573155                       # Number of cache lines fetched
system.switch_cpus3.fetch.icacheSquashes          223                       # Number of outstanding Icache misses that were squashed
system.switch_cpus3.fetch.nisnDist::samples    267962690                       # Number of instructions fetched each cycle (Total)
system.switch_cpus3.fetch.nisnDist::mean     1.545442                       # Number of instructions fetched each cycle (Total)
system.switch_cpus3.fetch.nisnDist::stdev     2.960749                       # Number of instructions fetched each cycle (Total)
system.switch_cpus3.fetch.nisnDist::underflows            0      0.00%      0.00% # Number of instructions fetched each cycle (Total)
system.switch_cpus3.fetch.nisnDist::0       201250970     75.10%     75.10% # Number of instructions fetched each cycle (Total)
system.switch_cpus3.fetch.nisnDist::1         5817441      2.17%     77.28% # Number of instructions fetched each cycle (Total)
system.switch_cpus3.fetch.nisnDist::2         2613573      0.98%     78.25% # Number of instructions fetched each cycle (Total)
system.switch_cpus3.fetch.nisnDist::3         6775479      2.53%     80.78% # Number of instructions fetched each cycle (Total)
system.switch_cpus3.fetch.nisnDist::4         2483160      0.93%     81.71% # Number of instructions fetched each cycle (Total)
system.switch_cpus3.fetch.nisnDist::5         3032689      1.13%     82.84% # Number of instructions fetched each cycle (Total)
system.switch_cpus3.fetch.nisnDist::6         3384783      1.26%     84.10% # Number of instructions fetched each cycle (Total)
system.switch_cpus3.fetch.nisnDist::7         3491674      1.30%     85.40% # Number of instructions fetched each cycle (Total)
system.switch_cpus3.fetch.nisnDist::8        39112921     14.60%    100.00% # Number of instructions fetched each cycle (Total)
system.switch_cpus3.fetch.nisnDist::overflows            0      0.00%    100.00% # Number of instructions fetched each cycle (Total)
system.switch_cpus3.fetch.nisnDist::min_value            0                       # Number of instructions fetched each cycle (Total)
system.switch_cpus3.fetch.nisnDist::max_value            8                       # Number of instructions fetched each cycle (Total)
system.switch_cpus3.fetch.nisnDist::total    267962690                       # Number of instructions fetched each cycle (Total)
system.switch_cpus3.fetch.branchRate         0.106490                       # Number of branch fetches per cycle
system.switch_cpus3.fetch.rate               0.936229                       # Number of inst fetches per cycle
system.switch_cpus3.itb.rdAccesses                  0                       # TLB accesses on read requests
system.switch_cpus3.itb.wrAccesses           30573159                       # TLB accesses on write requests
system.switch_cpus3.itb.rdMisses                    0                       # TLB misses on read requests
system.switch_cpus3.itb.wrMisses                   29                       # TLB misses on write requests
system.switch_cpus3.itb.walker.power_state.pwrStateResidencyTicks::UNDEFINED 15740521291431                       # Cumulative time (in ticks) in various power states
system.switch_cpus3.lsq0.forwLoads            4332550                       # Number of loads that had data forwarded from stores
system.switch_cpus3.lsq0.squashedLoads         180341                       # Number of loads squashed
system.switch_cpus3.lsq0.ignoredResponses          144                       # Number of memory responses ignored because the instruction is squashed
system.switch_cpus3.lsq0.memOrderViolation         2253                       # Number of memory ordering violations
system.switch_cpus3.lsq0.squashedStores        105854                       # Number of stores squashed
system.switch_cpus3.lsq0.rescheduledLoads            1                       # Number of loads that were rescheduled
system.switch_cpus3.lsq0.blockedByCache            47                       # Number of times an access to memory failed due to the cache being blocked
system.switch_cpus3.power_state.pwrStateResidencyTicks::OFF  89264173473                       # Cumulative time (in ticks) in various power states
system.switch_cpus3.rename.squashCycles         20767                       # Number of cycles rename is squashing
system.switch_cpus3.rename.idleCycles         6395571                       # Number of cycles rename is idle
system.switch_cpus3.rename.blockCycles       79946085                       # Number of cycles rename is blocking
system.switch_cpus3.rename.serializeStallCycles            0                       # count of cycles rename stalledfor serializing inst
system.switch_cpus3.rename.runCycles         57415368                       # Number of cycles rename is running
system.switch_cpus3.rename.unblockCycles    124184889                       # Number of cycles rename is unblocking
system.switch_cpus3.rename.renamedInsts     413596849                       # Number of instructions processed by rename
system.switch_cpus3.rename.ROBFullEvents       131205                       # Number of times rename has blocked due to ROB full
system.switch_cpus3.rename.IQFullEvents       7009316                       # Number of times rename has blocked due to IQ full
system.switch_cpus3.rename.LQFullEvents      31102208                       # Number of times rename has blocked due to LQ full
system.switch_cpus3.rename.SQFullEvents      88140823                       # Number of times rename has blocked due to SQ full
system.switch_cpus3.rename.renamedOperands    448920278                       # Number of destination operands rename has renamed
system.switch_cpus3.rename.lookups         1010646991                       # Number of register rename lookups that rename has made
system.switch_cpus3.rename.intLookups       406079361                       # Number of integer rename lookups
system.switch_cpus3.rename.fpLookups        302444209                       # Number of floating rename lookups
system.switch_cpus3.rename.committedMaps    448024440                       # Number of HB maps that are committed
system.switch_cpus3.rename.undoneMaps          895727                       # Number of HB maps that are undone due to squashing
system.switch_cpus3.rename.serializing              0                       # count of serializing insts renamed
system.switch_cpus3.rename.tempSerializing            0                       # count of temporary serializing insts renamed
system.switch_cpus3.rename.skidInsts         27935458                       # count of insts added to the skid buffer
system.switch_cpus3.rob.reads               640605851                       # The number of ROB reads
system.switch_cpus3.rob.writes              826951645                       # The number of ROB writes
system.switch_cpus3.thread0.numInsts        250000001                       # Number of Instructions committed
system.switch_cpus3.thread0.numOps          412717558                       # Number of Ops committed
system.switch_cpus3.thread0.numMemRefs              0                       # Number of Memory References
system.voltage_domain.voltage                       1                       # Voltage in Volts

---------- End Simulation Statistics   ----------
