
---------- Begin Simulation Statistics ----------
final_tick                               15740460688095                       # Number of ticks from beginning of simulation (restored from checkpoints and never reset)
host_inst_rate                                 144868                       # Simulator instruction rate (inst/s)
host_mem_usage                               17618620                       # Number of bytes of host memory used
host_op_rate                                   239158                       # Simulator op (including micro ops) rate (op/s)
host_seconds                                  6902.69                       # Real time elapsed on the host
host_tick_rate                               12923030                       # Simulator tick rate (ticks/s)
sim_freq                                 1000000000000                       # Frequency of simulated ticks
sim_insts                                   999976654                       # Number of instructions simulated
sim_ops                                    1650831690                       # Number of ops (including micro ops) simulated
sim_seconds                                  0.089204                       # Number of seconds simulated
sim_ticks                                 89203610763                       # Number of ticks simulated
system.cpu0.Branches                                1                       # Number of branches fetched
system.cpu0.committedInsts                         14                       # Number of instructions committed
system.cpu0.committedOps                           23                       # Number of ops (including micro ops) committed
system.cpu0.idle_fraction                           0                       # Percentage of idle cycles
system.cpu0.l2bus.snoop_filter.hit_multi_requests            2                       # Number of requests hitting in the snoop filter with multiple (>1) holders of the requested data.
system.cpu0.l2bus.snoop_filter.hit_multi_snoops            0                       # Number of snoops hitting in the snoop filter with multiple (>1) holders of the requested data.
system.cpu0.l2bus.snoop_filter.hit_single_requests      2574769                       # Number of requests hitting in the snoop filter with a single holder of the requested data.
system.cpu0.l2bus.snoop_filter.hit_single_snoops         6234                       # Number of snoops hitting in the snoop filter with a single holder of the requested data.
system.cpu0.l2bus.snoop_filter.tot_requests      5019464                       # Total number of requests made to the snoop filter.
system.cpu0.l2bus.snoop_filter.tot_snoops         6234                       # Total number of snoops made to the snoop filter.
system.cpu0.mmucache.mmubus.snoop_filter.hit_multi_requests            0                       # Number of requests hitting in the snoop filter with multiple (>1) holders of the requested data.
system.cpu0.mmucache.mmubus.snoop_filter.hit_multi_snoops            0                       # Number of snoops hitting in the snoop filter with multiple (>1) holders of the requested data.
system.cpu0.mmucache.mmubus.snoop_filter.hit_single_requests            0                       # Number of requests hitting in the snoop filter with a single holder of the requested data.
system.cpu0.mmucache.mmubus.snoop_filter.hit_single_snoops            0                       # Number of snoops hitting in the snoop filter with a single holder of the requested data.
system.cpu0.mmucache.mmubus.snoop_filter.tot_requests            0                       # Total number of requests made to the snoop filter.
system.cpu0.mmucache.mmubus.snoop_filter.tot_snoops            0                       # Total number of snoops made to the snoop filter.
system.cpu0.not_idle_fraction                       1                       # Percentage of non-idle cycles
system.cpu0.numCycles                              30                       # number of cpu cycles simulated
system.cpu0.numWorkItemsCompleted                   0                       # number of work items this cpu completed
system.cpu0.numWorkItemsStarted                     0                       # number of work items this cpu started
system.cpu0.num_busy_cycles                        30                       # Number of busy cycles
system.cpu0.num_cc_register_reads                   5                       # number of times the CC registers were read
system.cpu0.num_cc_register_writes                  8                       # number of times the CC registers were written
system.cpu0.num_conditional_control_insts            1                       # number of instructions that are conditional controls
system.cpu0.num_fp_alu_accesses                    12                       # Number of float alu accesses
system.cpu0.num_fp_insts                           12                       # number of float instructions
system.cpu0.num_fp_register_reads                  21                       # number of times the floating registers were read
system.cpu0.num_fp_register_writes                 11                       # number of times the floating registers were written
system.cpu0.num_func_calls                          0                       # number of times a function call or return occured
system.cpu0.num_idle_cycles                         0                       # Number of idle cycles
system.cpu0.num_int_alu_accesses                   16                       # Number of integer alu accesses
system.cpu0.num_int_insts                          16                       # number of integer instructions
system.cpu0.num_int_register_reads                 33                       # number of times the integer registers were read
system.cpu0.num_int_register_writes                10                       # number of times the integer registers were written
system.cpu0.num_load_insts                          6                       # Number of load instructions
system.cpu0.num_mem_refs                            7                       # number of memory refs
system.cpu0.num_store_insts                         1                       # Number of store instructions
system.cpu0.num_vec_alu_accesses                    0                       # Number of vector alu accesses
system.cpu0.num_vec_insts                           0                       # number of vector instructions
system.cpu0.num_vec_register_reads                  0                       # number of times the vector registers were read
system.cpu0.num_vec_register_writes                 0                       # number of times the vector registers were written
system.cpu0.op_class::No_OpClass                    0      0.00%      0.00% # Class of executed instruction
system.cpu0.op_class::IntAlu                       10     43.48%     43.48% # Class of executed instruction
system.cpu0.op_class::IntMult                       0      0.00%     43.48% # Class of executed instruction
system.cpu0.op_class::IntDiv                        0      0.00%     43.48% # Class of executed instruction
system.cpu0.op_class::FloatAdd                      0      0.00%     43.48% # Class of executed instruction
system.cpu0.op_class::FloatCmp                      0      0.00%     43.48% # Class of executed instruction
system.cpu0.op_class::FloatCvt                      0      0.00%     43.48% # Class of executed instruction
system.cpu0.op_class::FloatMult                     0      0.00%     43.48% # Class of executed instruction
system.cpu0.op_class::FloatMultAcc                  0      0.00%     43.48% # Class of executed instruction
system.cpu0.op_class::FloatDiv                      0      0.00%     43.48% # Class of executed instruction
system.cpu0.op_class::FloatMisc                     0      0.00%     43.48% # Class of executed instruction
system.cpu0.op_class::FloatSqrt                     0      0.00%     43.48% # Class of executed instruction
system.cpu0.op_class::SimdAdd                       0      0.00%     43.48% # Class of executed instruction
system.cpu0.op_class::SimdAddAcc                    0      0.00%     43.48% # Class of executed instruction
system.cpu0.op_class::SimdAlu                       0      0.00%     43.48% # Class of executed instruction
system.cpu0.op_class::SimdCmp                       0      0.00%     43.48% # Class of executed instruction
system.cpu0.op_class::SimdCvt                       0      0.00%     43.48% # Class of executed instruction
system.cpu0.op_class::SimdMisc                      0      0.00%     43.48% # Class of executed instruction
system.cpu0.op_class::SimdMult                      0      0.00%     43.48% # Class of executed instruction
system.cpu0.op_class::SimdMultAcc                   0      0.00%     43.48% # Class of executed instruction
system.cpu0.op_class::SimdShift                     0      0.00%     43.48% # Class of executed instruction
system.cpu0.op_class::SimdShiftAcc                  0      0.00%     43.48% # Class of executed instruction
system.cpu0.op_class::SimdDiv                       0      0.00%     43.48% # Class of executed instruction
system.cpu0.op_class::SimdSqrt                      0      0.00%     43.48% # Class of executed instruction
system.cpu0.op_class::SimdFloatAdd                  4     17.39%     60.87% # Class of executed instruction
system.cpu0.op_class::SimdFloatAlu                  0      0.00%     60.87% # Class of executed instruction
system.cpu0.op_class::SimdFloatCmp                  0      0.00%     60.87% # Class of executed instruction
system.cpu0.op_class::SimdFloatCvt                  0      0.00%     60.87% # Class of executed instruction
system.cpu0.op_class::SimdFloatDiv                  0      0.00%     60.87% # Class of executed instruction
system.cpu0.op_class::SimdFloatMisc                 0      0.00%     60.87% # Class of executed instruction
system.cpu0.op_class::SimdFloatMult                 2      8.70%     69.57% # Class of executed instruction
system.cpu0.op_class::SimdFloatMultAcc              0      0.00%     69.57% # Class of executed instruction
system.cpu0.op_class::SimdFloatSqrt                 0      0.00%     69.57% # Class of executed instruction
system.cpu0.op_class::SimdReduceAdd                 0      0.00%     69.57% # Class of executed instruction
system.cpu0.op_class::SimdReduceAlu                 0      0.00%     69.57% # Class of executed instruction
system.cpu0.op_class::SimdReduceCmp                 0      0.00%     69.57% # Class of executed instruction
system.cpu0.op_class::SimdFloatReduceAdd            0      0.00%     69.57% # Class of executed instruction
system.cpu0.op_class::SimdFloatReduceCmp            0      0.00%     69.57% # Class of executed instruction
system.cpu0.op_class::SimdAes                       0      0.00%     69.57% # Class of executed instruction
system.cpu0.op_class::SimdAesMix                    0      0.00%     69.57% # Class of executed instruction
system.cpu0.op_class::SimdSha1Hash                  0      0.00%     69.57% # Class of executed instruction
system.cpu0.op_class::SimdSha1Hash2                 0      0.00%     69.57% # Class of executed instruction
system.cpu0.op_class::SimdSha256Hash                0      0.00%     69.57% # Class of executed instruction
system.cpu0.op_class::SimdSha256Hash2               0      0.00%     69.57% # Class of executed instruction
system.cpu0.op_class::SimdShaSigma2                 0      0.00%     69.57% # Class of executed instruction
system.cpu0.op_class::SimdShaSigma3                 0      0.00%     69.57% # Class of executed instruction
system.cpu0.op_class::SimdPredAlu                   0      0.00%     69.57% # Class of executed instruction
system.cpu0.op_class::MemRead                       2      8.70%     78.26% # Class of executed instruction
system.cpu0.op_class::MemWrite                      0      0.00%     78.26% # Class of executed instruction
system.cpu0.op_class::FloatMemRead                  4     17.39%     95.65% # Class of executed instruction
system.cpu0.op_class::FloatMemWrite                 1      4.35%    100.00% # Class of executed instruction
system.cpu0.op_class::IprAccess                     0      0.00%    100.00% # Class of executed instruction
system.cpu0.op_class::InstPrefetch                  0      0.00%    100.00% # Class of executed instruction
system.cpu0.op_class::total                        23                       # Class of executed instruction
system.cpu0.workload.numSyscalls                    0                       # Number of system calls
system.cpu1.Branches                                1                       # Number of branches fetched
system.cpu1.committedInsts                         14                       # Number of instructions committed
system.cpu1.committedOps                           23                       # Number of ops (including micro ops) committed
system.cpu1.idle_fraction                           0                       # Percentage of idle cycles
system.cpu1.l2bus.snoop_filter.hit_multi_requests            3                       # Number of requests hitting in the snoop filter with multiple (>1) holders of the requested data.
system.cpu1.l2bus.snoop_filter.hit_multi_snoops            0                       # Number of snoops hitting in the snoop filter with multiple (>1) holders of the requested data.
system.cpu1.l2bus.snoop_filter.hit_single_requests      2574846                       # Number of requests hitting in the snoop filter with a single holder of the requested data.
system.cpu1.l2bus.snoop_filter.hit_single_snoops         6169                       # Number of snoops hitting in the snoop filter with a single holder of the requested data.
system.cpu1.l2bus.snoop_filter.tot_requests      5019554                       # Total number of requests made to the snoop filter.
system.cpu1.l2bus.snoop_filter.tot_snoops         6169                       # Total number of snoops made to the snoop filter.
system.cpu1.mmucache.mmubus.snoop_filter.hit_multi_requests            0                       # Number of requests hitting in the snoop filter with multiple (>1) holders of the requested data.
system.cpu1.mmucache.mmubus.snoop_filter.hit_multi_snoops            0                       # Number of snoops hitting in the snoop filter with multiple (>1) holders of the requested data.
system.cpu1.mmucache.mmubus.snoop_filter.hit_single_requests            0                       # Number of requests hitting in the snoop filter with a single holder of the requested data.
system.cpu1.mmucache.mmubus.snoop_filter.hit_single_snoops            0                       # Number of snoops hitting in the snoop filter with a single holder of the requested data.
system.cpu1.mmucache.mmubus.snoop_filter.tot_requests            0                       # Total number of requests made to the snoop filter.
system.cpu1.mmucache.mmubus.snoop_filter.tot_snoops            0                       # Total number of snoops made to the snoop filter.
system.cpu1.not_idle_fraction                       1                       # Percentage of non-idle cycles
system.cpu1.numCycles                              30                       # number of cpu cycles simulated
system.cpu1.numWorkItemsCompleted                   0                       # number of work items this cpu completed
system.cpu1.numWorkItemsStarted                     0                       # number of work items this cpu started
system.cpu1.num_busy_cycles                        30                       # Number of busy cycles
system.cpu1.num_cc_register_reads                   5                       # number of times the CC registers were read
system.cpu1.num_cc_register_writes                  8                       # number of times the CC registers were written
system.cpu1.num_conditional_control_insts            1                       # number of instructions that are conditional controls
system.cpu1.num_fp_alu_accesses                    12                       # Number of float alu accesses
system.cpu1.num_fp_insts                           12                       # number of float instructions
system.cpu1.num_fp_register_reads                  21                       # number of times the floating registers were read
system.cpu1.num_fp_register_writes                 11                       # number of times the floating registers were written
system.cpu1.num_func_calls                          0                       # number of times a function call or return occured
system.cpu1.num_idle_cycles                         0                       # Number of idle cycles
system.cpu1.num_int_alu_accesses                   16                       # Number of integer alu accesses
system.cpu1.num_int_insts                          16                       # number of integer instructions
system.cpu1.num_int_register_reads                 33                       # number of times the integer registers were read
system.cpu1.num_int_register_writes                10                       # number of times the integer registers were written
system.cpu1.num_load_insts                          6                       # Number of load instructions
system.cpu1.num_mem_refs                            7                       # number of memory refs
system.cpu1.num_store_insts                         1                       # Number of store instructions
system.cpu1.num_vec_alu_accesses                    0                       # Number of vector alu accesses
system.cpu1.num_vec_insts                           0                       # number of vector instructions
system.cpu1.num_vec_register_reads                  0                       # number of times the vector registers were read
system.cpu1.num_vec_register_writes                 0                       # number of times the vector registers were written
system.cpu1.op_class::No_OpClass                    0      0.00%      0.00% # Class of executed instruction
system.cpu1.op_class::IntAlu                       10     43.48%     43.48% # Class of executed instruction
system.cpu1.op_class::IntMult                       0      0.00%     43.48% # Class of executed instruction
system.cpu1.op_class::IntDiv                        0      0.00%     43.48% # Class of executed instruction
system.cpu1.op_class::FloatAdd                      0      0.00%     43.48% # Class of executed instruction
system.cpu1.op_class::FloatCmp                      0      0.00%     43.48% # Class of executed instruction
system.cpu1.op_class::FloatCvt                      0      0.00%     43.48% # Class of executed instruction
system.cpu1.op_class::FloatMult                     0      0.00%     43.48% # Class of executed instruction
system.cpu1.op_class::FloatMultAcc                  0      0.00%     43.48% # Class of executed instruction
system.cpu1.op_class::FloatDiv                      0      0.00%     43.48% # Class of executed instruction
system.cpu1.op_class::FloatMisc                     0      0.00%     43.48% # Class of executed instruction
system.cpu1.op_class::FloatSqrt                     0      0.00%     43.48% # Class of executed instruction
system.cpu1.op_class::SimdAdd                       0      0.00%     43.48% # Class of executed instruction
system.cpu1.op_class::SimdAddAcc                    0      0.00%     43.48% # Class of executed instruction
system.cpu1.op_class::SimdAlu                       0      0.00%     43.48% # Class of executed instruction
system.cpu1.op_class::SimdCmp                       0      0.00%     43.48% # Class of executed instruction
system.cpu1.op_class::SimdCvt                       0      0.00%     43.48% # Class of executed instruction
system.cpu1.op_class::SimdMisc                      0      0.00%     43.48% # Class of executed instruction
system.cpu1.op_class::SimdMult                      0      0.00%     43.48% # Class of executed instruction
system.cpu1.op_class::SimdMultAcc                   0      0.00%     43.48% # Class of executed instruction
system.cpu1.op_class::SimdShift                     0      0.00%     43.48% # Class of executed instruction
system.cpu1.op_class::SimdShiftAcc                  0      0.00%     43.48% # Class of executed instruction
system.cpu1.op_class::SimdDiv                       0      0.00%     43.48% # Class of executed instruction
system.cpu1.op_class::SimdSqrt                      0      0.00%     43.48% # Class of executed instruction
system.cpu1.op_class::SimdFloatAdd                  4     17.39%     60.87% # Class of executed instruction
system.cpu1.op_class::SimdFloatAlu                  0      0.00%     60.87% # Class of executed instruction
system.cpu1.op_class::SimdFloatCmp                  0      0.00%     60.87% # Class of executed instruction
system.cpu1.op_class::SimdFloatCvt                  0      0.00%     60.87% # Class of executed instruction
system.cpu1.op_class::SimdFloatDiv                  0      0.00%     60.87% # Class of executed instruction
system.cpu1.op_class::SimdFloatMisc                 0      0.00%     60.87% # Class of executed instruction
system.cpu1.op_class::SimdFloatMult                 2      8.70%     69.57% # Class of executed instruction
system.cpu1.op_class::SimdFloatMultAcc              0      0.00%     69.57% # Class of executed instruction
system.cpu1.op_class::SimdFloatSqrt                 0      0.00%     69.57% # Class of executed instruction
system.cpu1.op_class::SimdReduceAdd                 0      0.00%     69.57% # Class of executed instruction
system.cpu1.op_class::SimdReduceAlu                 0      0.00%     69.57% # Class of executed instruction
system.cpu1.op_class::SimdReduceCmp                 0      0.00%     69.57% # Class of executed instruction
system.cpu1.op_class::SimdFloatReduceAdd            0      0.00%     69.57% # Class of executed instruction
system.cpu1.op_class::SimdFloatReduceCmp            0      0.00%     69.57% # Class of executed instruction
system.cpu1.op_class::SimdAes                       0      0.00%     69.57% # Class of executed instruction
system.cpu1.op_class::SimdAesMix                    0      0.00%     69.57% # Class of executed instruction
system.cpu1.op_class::SimdSha1Hash                  0      0.00%     69.57% # Class of executed instruction
system.cpu1.op_class::SimdSha1Hash2                 0      0.00%     69.57% # Class of executed instruction
system.cpu1.op_class::SimdSha256Hash                0      0.00%     69.57% # Class of executed instruction
system.cpu1.op_class::SimdSha256Hash2               0      0.00%     69.57% # Class of executed instruction
system.cpu1.op_class::SimdShaSigma2                 0      0.00%     69.57% # Class of executed instruction
system.cpu1.op_class::SimdShaSigma3                 0      0.00%     69.57% # Class of executed instruction
system.cpu1.op_class::SimdPredAlu                   0      0.00%     69.57% # Class of executed instruction
system.cpu1.op_class::MemRead                       2      8.70%     78.26% # Class of executed instruction
system.cpu1.op_class::MemWrite                      0      0.00%     78.26% # Class of executed instruction
system.cpu1.op_class::FloatMemRead                  4     17.39%     95.65% # Class of executed instruction
system.cpu1.op_class::FloatMemWrite                 1      4.35%    100.00% # Class of executed instruction
system.cpu1.op_class::IprAccess                     0      0.00%    100.00% # Class of executed instruction
system.cpu1.op_class::InstPrefetch                  0      0.00%    100.00% # Class of executed instruction
system.cpu1.op_class::total                        23                       # Class of executed instruction
system.cpu1.workload.numSyscalls                    0                       # Number of system calls
system.cpu2.Branches                                1                       # Number of branches fetched
system.cpu2.committedInsts                         14                       # Number of instructions committed
system.cpu2.committedOps                           23                       # Number of ops (including micro ops) committed
system.cpu2.idle_fraction                           0                       # Percentage of idle cycles
system.cpu2.l2bus.snoop_filter.hit_multi_requests            2                       # Number of requests hitting in the snoop filter with multiple (>1) holders of the requested data.
system.cpu2.l2bus.snoop_filter.hit_multi_snoops            0                       # Number of snoops hitting in the snoop filter with multiple (>1) holders of the requested data.
system.cpu2.l2bus.snoop_filter.hit_single_requests      2573869                       # Number of requests hitting in the snoop filter with a single holder of the requested data.
system.cpu2.l2bus.snoop_filter.hit_single_snoops         5772                       # Number of snoops hitting in the snoop filter with a single holder of the requested data.
system.cpu2.l2bus.snoop_filter.tot_requests      5018477                       # Total number of requests made to the snoop filter.
system.cpu2.l2bus.snoop_filter.tot_snoops         5772                       # Total number of snoops made to the snoop filter.
system.cpu2.mmucache.mmubus.snoop_filter.hit_multi_requests            0                       # Number of requests hitting in the snoop filter with multiple (>1) holders of the requested data.
system.cpu2.mmucache.mmubus.snoop_filter.hit_multi_snoops            0                       # Number of snoops hitting in the snoop filter with multiple (>1) holders of the requested data.
system.cpu2.mmucache.mmubus.snoop_filter.hit_single_requests            0                       # Number of requests hitting in the snoop filter with a single holder of the requested data.
system.cpu2.mmucache.mmubus.snoop_filter.hit_single_snoops            0                       # Number of snoops hitting in the snoop filter with a single holder of the requested data.
system.cpu2.mmucache.mmubus.snoop_filter.tot_requests            0                       # Total number of requests made to the snoop filter.
system.cpu2.mmucache.mmubus.snoop_filter.tot_snoops            0                       # Total number of snoops made to the snoop filter.
system.cpu2.not_idle_fraction                       1                       # Percentage of non-idle cycles
system.cpu2.numCycles                              30                       # number of cpu cycles simulated
system.cpu2.numWorkItemsCompleted                   0                       # number of work items this cpu completed
system.cpu2.numWorkItemsStarted                     0                       # number of work items this cpu started
system.cpu2.num_busy_cycles                        30                       # Number of busy cycles
system.cpu2.num_cc_register_reads                   5                       # number of times the CC registers were read
system.cpu2.num_cc_register_writes                  8                       # number of times the CC registers were written
system.cpu2.num_conditional_control_insts            1                       # number of instructions that are conditional controls
system.cpu2.num_fp_alu_accesses                    12                       # Number of float alu accesses
system.cpu2.num_fp_insts                           12                       # number of float instructions
system.cpu2.num_fp_register_reads                  21                       # number of times the floating registers were read
system.cpu2.num_fp_register_writes                 11                       # number of times the floating registers were written
system.cpu2.num_func_calls                          0                       # number of times a function call or return occured
system.cpu2.num_idle_cycles                         0                       # Number of idle cycles
system.cpu2.num_int_alu_accesses                   16                       # Number of integer alu accesses
system.cpu2.num_int_insts                          16                       # number of integer instructions
system.cpu2.num_int_register_reads                 33                       # number of times the integer registers were read
system.cpu2.num_int_register_writes                10                       # number of times the integer registers were written
system.cpu2.num_load_insts                          6                       # Number of load instructions
system.cpu2.num_mem_refs                            7                       # number of memory refs
system.cpu2.num_store_insts                         1                       # Number of store instructions
system.cpu2.num_vec_alu_accesses                    0                       # Number of vector alu accesses
system.cpu2.num_vec_insts                           0                       # number of vector instructions
system.cpu2.num_vec_register_reads                  0                       # number of times the vector registers were read
system.cpu2.num_vec_register_writes                 0                       # number of times the vector registers were written
system.cpu2.op_class::No_OpClass                    0      0.00%      0.00% # Class of executed instruction
system.cpu2.op_class::IntAlu                       10     43.48%     43.48% # Class of executed instruction
system.cpu2.op_class::IntMult                       0      0.00%     43.48% # Class of executed instruction
system.cpu2.op_class::IntDiv                        0      0.00%     43.48% # Class of executed instruction
system.cpu2.op_class::FloatAdd                      0      0.00%     43.48% # Class of executed instruction
system.cpu2.op_class::FloatCmp                      0      0.00%     43.48% # Class of executed instruction
system.cpu2.op_class::FloatCvt                      0      0.00%     43.48% # Class of executed instruction
system.cpu2.op_class::FloatMult                     0      0.00%     43.48% # Class of executed instruction
system.cpu2.op_class::FloatMultAcc                  0      0.00%     43.48% # Class of executed instruction
system.cpu2.op_class::FloatDiv                      0      0.00%     43.48% # Class of executed instruction
system.cpu2.op_class::FloatMisc                     0      0.00%     43.48% # Class of executed instruction
system.cpu2.op_class::FloatSqrt                     0      0.00%     43.48% # Class of executed instruction
system.cpu2.op_class::SimdAdd                       0      0.00%     43.48% # Class of executed instruction
system.cpu2.op_class::SimdAddAcc                    0      0.00%     43.48% # Class of executed instruction
system.cpu2.op_class::SimdAlu                       0      0.00%     43.48% # Class of executed instruction
system.cpu2.op_class::SimdCmp                       0      0.00%     43.48% # Class of executed instruction
system.cpu2.op_class::SimdCvt                       0      0.00%     43.48% # Class of executed instruction
system.cpu2.op_class::SimdMisc                      0      0.00%     43.48% # Class of executed instruction
system.cpu2.op_class::SimdMult                      0      0.00%     43.48% # Class of executed instruction
system.cpu2.op_class::SimdMultAcc                   0      0.00%     43.48% # Class of executed instruction
system.cpu2.op_class::SimdShift                     0      0.00%     43.48% # Class of executed instruction
system.cpu2.op_class::SimdShiftAcc                  0      0.00%     43.48% # Class of executed instruction
system.cpu2.op_class::SimdDiv                       0      0.00%     43.48% # Class of executed instruction
system.cpu2.op_class::SimdSqrt                      0      0.00%     43.48% # Class of executed instruction
system.cpu2.op_class::SimdFloatAdd                  4     17.39%     60.87% # Class of executed instruction
system.cpu2.op_class::SimdFloatAlu                  0      0.00%     60.87% # Class of executed instruction
system.cpu2.op_class::SimdFloatCmp                  0      0.00%     60.87% # Class of executed instruction
system.cpu2.op_class::SimdFloatCvt                  0      0.00%     60.87% # Class of executed instruction
system.cpu2.op_class::SimdFloatDiv                  0      0.00%     60.87% # Class of executed instruction
system.cpu2.op_class::SimdFloatMisc                 0      0.00%     60.87% # Class of executed instruction
system.cpu2.op_class::SimdFloatMult                 2      8.70%     69.57% # Class of executed instruction
system.cpu2.op_class::SimdFloatMultAcc              0      0.00%     69.57% # Class of executed instruction
system.cpu2.op_class::SimdFloatSqrt                 0      0.00%     69.57% # Class of executed instruction
system.cpu2.op_class::SimdReduceAdd                 0      0.00%     69.57% # Class of executed instruction
system.cpu2.op_class::SimdReduceAlu                 0      0.00%     69.57% # Class of executed instruction
system.cpu2.op_class::SimdReduceCmp                 0      0.00%     69.57% # Class of executed instruction
system.cpu2.op_class::SimdFloatReduceAdd            0      0.00%     69.57% # Class of executed instruction
system.cpu2.op_class::SimdFloatReduceCmp            0      0.00%     69.57% # Class of executed instruction
system.cpu2.op_class::SimdAes                       0      0.00%     69.57% # Class of executed instruction
system.cpu2.op_class::SimdAesMix                    0      0.00%     69.57% # Class of executed instruction
system.cpu2.op_class::SimdSha1Hash                  0      0.00%     69.57% # Class of executed instruction
system.cpu2.op_class::SimdSha1Hash2                 0      0.00%     69.57% # Class of executed instruction
system.cpu2.op_class::SimdSha256Hash                0      0.00%     69.57% # Class of executed instruction
system.cpu2.op_class::SimdSha256Hash2               0      0.00%     69.57% # Class of executed instruction
system.cpu2.op_class::SimdShaSigma2                 0      0.00%     69.57% # Class of executed instruction
system.cpu2.op_class::SimdShaSigma3                 0      0.00%     69.57% # Class of executed instruction
system.cpu2.op_class::SimdPredAlu                   0      0.00%     69.57% # Class of executed instruction
system.cpu2.op_class::MemRead                       2      8.70%     78.26% # Class of executed instruction
system.cpu2.op_class::MemWrite                      0      0.00%     78.26% # Class of executed instruction
system.cpu2.op_class::FloatMemRead                  4     17.39%     95.65% # Class of executed instruction
system.cpu2.op_class::FloatMemWrite                 1      4.35%    100.00% # Class of executed instruction
system.cpu2.op_class::IprAccess                     0      0.00%    100.00% # Class of executed instruction
system.cpu2.op_class::InstPrefetch                  0      0.00%    100.00% # Class of executed instruction
system.cpu2.op_class::total                        23                       # Class of executed instruction
system.cpu2.workload.numSyscalls                    0                       # Number of system calls
system.cpu3.Branches                                1                       # Number of branches fetched
system.cpu3.committedInsts                         14                       # Number of instructions committed
system.cpu3.committedOps                           23                       # Number of ops (including micro ops) committed
system.cpu3.idle_fraction                           0                       # Percentage of idle cycles
system.cpu3.l2bus.snoop_filter.hit_multi_requests            2                       # Number of requests hitting in the snoop filter with multiple (>1) holders of the requested data.
system.cpu3.l2bus.snoop_filter.hit_multi_snoops            0                       # Number of snoops hitting in the snoop filter with multiple (>1) holders of the requested data.
system.cpu3.l2bus.snoop_filter.hit_single_requests      2573777                       # Number of requests hitting in the snoop filter with a single holder of the requested data.
system.cpu3.l2bus.snoop_filter.hit_single_snoops         5765                       # Number of snoops hitting in the snoop filter with a single holder of the requested data.
system.cpu3.l2bus.snoop_filter.tot_requests      5018265                       # Total number of requests made to the snoop filter.
system.cpu3.l2bus.snoop_filter.tot_snoops         5765                       # Total number of snoops made to the snoop filter.
system.cpu3.mmucache.mmubus.snoop_filter.hit_multi_requests            0                       # Number of requests hitting in the snoop filter with multiple (>1) holders of the requested data.
system.cpu3.mmucache.mmubus.snoop_filter.hit_multi_snoops            0                       # Number of snoops hitting in the snoop filter with multiple (>1) holders of the requested data.
system.cpu3.mmucache.mmubus.snoop_filter.hit_single_requests            0                       # Number of requests hitting in the snoop filter with a single holder of the requested data.
system.cpu3.mmucache.mmubus.snoop_filter.hit_single_snoops            0                       # Number of snoops hitting in the snoop filter with a single holder of the requested data.
system.cpu3.mmucache.mmubus.snoop_filter.tot_requests            0                       # Total number of requests made to the snoop filter.
system.cpu3.mmucache.mmubus.snoop_filter.tot_snoops            0                       # Total number of snoops made to the snoop filter.
system.cpu3.not_idle_fraction                       1                       # Percentage of non-idle cycles
system.cpu3.numCycles                              30                       # number of cpu cycles simulated
system.cpu3.numWorkItemsCompleted                   0                       # number of work items this cpu completed
system.cpu3.numWorkItemsStarted                     0                       # number of work items this cpu started
system.cpu3.num_busy_cycles                        30                       # Number of busy cycles
system.cpu3.num_cc_register_reads                   5                       # number of times the CC registers were read
system.cpu3.num_cc_register_writes                  8                       # number of times the CC registers were written
system.cpu3.num_conditional_control_insts            1                       # number of instructions that are conditional controls
system.cpu3.num_fp_alu_accesses                    12                       # Number of float alu accesses
system.cpu3.num_fp_insts                           12                       # number of float instructions
system.cpu3.num_fp_register_reads                  21                       # number of times the floating registers were read
system.cpu3.num_fp_register_writes                 11                       # number of times the floating registers were written
system.cpu3.num_func_calls                          0                       # number of times a function call or return occured
system.cpu3.num_idle_cycles                         0                       # Number of idle cycles
system.cpu3.num_int_alu_accesses                   16                       # Number of integer alu accesses
system.cpu3.num_int_insts                          16                       # number of integer instructions
system.cpu3.num_int_register_reads                 33                       # number of times the integer registers were read
system.cpu3.num_int_register_writes                10                       # number of times the integer registers were written
system.cpu3.num_load_insts                          6                       # Number of load instructions
system.cpu3.num_mem_refs                            7                       # number of memory refs
system.cpu3.num_store_insts                         1                       # Number of store instructions
system.cpu3.num_vec_alu_accesses                    0                       # Number of vector alu accesses
system.cpu3.num_vec_insts                           0                       # number of vector instructions
system.cpu3.num_vec_register_reads                  0                       # number of times the vector registers were read
system.cpu3.num_vec_register_writes                 0                       # number of times the vector registers were written
system.cpu3.op_class::No_OpClass                    0      0.00%      0.00% # Class of executed instruction
system.cpu3.op_class::IntAlu                       10     43.48%     43.48% # Class of executed instruction
system.cpu3.op_class::IntMult                       0      0.00%     43.48% # Class of executed instruction
system.cpu3.op_class::IntDiv                        0      0.00%     43.48% # Class of executed instruction
system.cpu3.op_class::FloatAdd                      0      0.00%     43.48% # Class of executed instruction
system.cpu3.op_class::FloatCmp                      0      0.00%     43.48% # Class of executed instruction
system.cpu3.op_class::FloatCvt                      0      0.00%     43.48% # Class of executed instruction
system.cpu3.op_class::FloatMult                     0      0.00%     43.48% # Class of executed instruction
system.cpu3.op_class::FloatMultAcc                  0      0.00%     43.48% # Class of executed instruction
system.cpu3.op_class::FloatDiv                      0      0.00%     43.48% # Class of executed instruction
system.cpu3.op_class::FloatMisc                     0      0.00%     43.48% # Class of executed instruction
system.cpu3.op_class::FloatSqrt                     0      0.00%     43.48% # Class of executed instruction
system.cpu3.op_class::SimdAdd                       0      0.00%     43.48% # Class of executed instruction
system.cpu3.op_class::SimdAddAcc                    0      0.00%     43.48% # Class of executed instruction
system.cpu3.op_class::SimdAlu                       0      0.00%     43.48% # Class of executed instruction
system.cpu3.op_class::SimdCmp                       0      0.00%     43.48% # Class of executed instruction
system.cpu3.op_class::SimdCvt                       0      0.00%     43.48% # Class of executed instruction
system.cpu3.op_class::SimdMisc                      0      0.00%     43.48% # Class of executed instruction
system.cpu3.op_class::SimdMult                      0      0.00%     43.48% # Class of executed instruction
system.cpu3.op_class::SimdMultAcc                   0      0.00%     43.48% # Class of executed instruction
system.cpu3.op_class::SimdShift                     0      0.00%     43.48% # Class of executed instruction
system.cpu3.op_class::SimdShiftAcc                  0      0.00%     43.48% # Class of executed instruction
system.cpu3.op_class::SimdDiv                       0      0.00%     43.48% # Class of executed instruction
system.cpu3.op_class::SimdSqrt                      0      0.00%     43.48% # Class of executed instruction
system.cpu3.op_class::SimdFloatAdd                  4     17.39%     60.87% # Class of executed instruction
system.cpu3.op_class::SimdFloatAlu                  0      0.00%     60.87% # Class of executed instruction
system.cpu3.op_class::SimdFloatCmp                  0      0.00%     60.87% # Class of executed instruction
system.cpu3.op_class::SimdFloatCvt                  0      0.00%     60.87% # Class of executed instruction
system.cpu3.op_class::SimdFloatDiv                  0      0.00%     60.87% # Class of executed instruction
system.cpu3.op_class::SimdFloatMisc                 0      0.00%     60.87% # Class of executed instruction
system.cpu3.op_class::SimdFloatMult                 2      8.70%     69.57% # Class of executed instruction
system.cpu3.op_class::SimdFloatMultAcc              0      0.00%     69.57% # Class of executed instruction
system.cpu3.op_class::SimdFloatSqrt                 0      0.00%     69.57% # Class of executed instruction
system.cpu3.op_class::SimdReduceAdd                 0      0.00%     69.57% # Class of executed instruction
system.cpu3.op_class::SimdReduceAlu                 0      0.00%     69.57% # Class of executed instruction
system.cpu3.op_class::SimdReduceCmp                 0      0.00%     69.57% # Class of executed instruction
system.cpu3.op_class::SimdFloatReduceAdd            0      0.00%     69.57% # Class of executed instruction
system.cpu3.op_class::SimdFloatReduceCmp            0      0.00%     69.57% # Class of executed instruction
system.cpu3.op_class::SimdAes                       0      0.00%     69.57% # Class of executed instruction
system.cpu3.op_class::SimdAesMix                    0      0.00%     69.57% # Class of executed instruction
system.cpu3.op_class::SimdSha1Hash                  0      0.00%     69.57% # Class of executed instruction
system.cpu3.op_class::SimdSha1Hash2                 0      0.00%     69.57% # Class of executed instruction
system.cpu3.op_class::SimdSha256Hash                0      0.00%     69.57% # Class of executed instruction
system.cpu3.op_class::SimdSha256Hash2               0      0.00%     69.57% # Class of executed instruction
system.cpu3.op_class::SimdShaSigma2                 0      0.00%     69.57% # Class of executed instruction
system.cpu3.op_class::SimdShaSigma3                 0      0.00%     69.57% # Class of executed instruction
system.cpu3.op_class::SimdPredAlu                   0      0.00%     69.57% # Class of executed instruction
system.cpu3.op_class::MemRead                       2      8.70%     78.26% # Class of executed instruction
system.cpu3.op_class::MemWrite                      0      0.00%     78.26% # Class of executed instruction
system.cpu3.op_class::FloatMemRead                  4     17.39%     95.65% # Class of executed instruction
system.cpu3.op_class::FloatMemWrite                 1      4.35%    100.00% # Class of executed instruction
system.cpu3.op_class::IprAccess                     0      0.00%    100.00% # Class of executed instruction
system.cpu3.op_class::InstPrefetch                  0      0.00%    100.00% # Class of executed instruction
system.cpu3.op_class::total                        23                       # Class of executed instruction
system.cpu3.workload.numSyscalls                    0                       # Number of system calls
system.l3bus.snoop_filter.hit_multi_requests            0                       # Number of requests hitting in the snoop filter with multiple (>1) holders of the requested data.
system.l3bus.snoop_filter.hit_multi_snoops            0                       # Number of snoops hitting in the snoop filter with multiple (>1) holders of the requested data.
system.l3bus.snoop_filter.hit_single_requests      7479014                       # Number of requests hitting in the snoop filter with a single holder of the requested data.
system.l3bus.snoop_filter.hit_single_snoops            6                       # Number of snoops hitting in the snoop filter with a single holder of the requested data.
system.l3bus.snoop_filter.tot_requests       15025361                       # Total number of requests made to the snoop filter.
system.l3bus.snoop_filter.tot_snoops                6                       # Total number of snoops made to the snoop filter.
system.membus.snoop_filter.hit_multi_requests            0                       # Number of requests hitting in the snoop filter with multiple (>1) holders of the requested data.
system.membus.snoop_filter.hit_multi_snoops            0                       # Number of snoops hitting in the snoop filter with multiple (>1) holders of the requested data.
system.membus.snoop_filter.hit_single_requests      4723447                       # Number of requests hitting in the snoop filter with a single holder of the requested data.
system.membus.snoop_filter.hit_single_snoops            0                       # Number of snoops hitting in the snoop filter with a single holder of the requested data.
system.membus.snoop_filter.tot_requests       9518379                       # Total number of requests made to the snoop filter.
system.membus.snoop_filter.tot_snoops               0                       # Total number of snoops made to the snoop filter.
system.switch_cpus0.cc_regfile_reads        130716612                       # number of cc regfile reads
system.switch_cpus0.cc_regfile_writes        97931686                       # number of cc regfile writes
system.switch_cpus0.committedInsts          250000000                       # Number of Instructions Simulated
system.switch_cpus0.committedOps            412717679                       # Number of Ops (including micro ops) Simulated
system.switch_cpus0.cpi                      1.071515                       # CPI: Cycles Per Instruction
system.switch_cpus0.cpi_total                1.071515                       # CPI: Total CPI of All Threads
system.switch_cpus0.fp_regfile_reads        302028683                       # number of floating regfile reads
system.switch_cpus0.fp_regfile_writes       159571297                       # number of floating regfile writes
system.switch_cpus0.idleCycles                  97534                       # Total number of cycles that the CPU has spent unscheduled due to idling
system.switch_cpus0.iew.branchMispredicts        19002                       # Number of branch mispredicts detected at execute
system.switch_cpus0.iew.exec_branches        28475775                       # Number of branches executed
system.switch_cpus0.iew.exec_nop                    0                       # number of nop insts executed
system.switch_cpus0.iew.exec_rate            1.542192                       # Inst execution rate
system.switch_cpus0.iew.exec_refs            96922148                       # number of memory reference insts executed
system.switch_cpus0.iew.exec_stores          27538812                       # Number of stores executed
system.switch_cpus0.iew.exec_swp                    0                       # number of swp insts executed
system.switch_cpus0.iew.iewBlockCycles       52811236                       # Number of cycles IEW is blocking
system.switch_cpus0.iew.iewDispLoadInsts     69427574                       # Number of dispatched load instructions
system.switch_cpus0.iew.iewDispNonSpecInsts            3                       # Number of dispatched non-speculative instructions
system.switch_cpus0.iew.iewDispSquashedInsts          518                       # Number of squashed instructions skipped by dispatch
system.switch_cpus0.iew.iewDispStoreInsts     27595254                       # Number of dispatched store instructions
system.switch_cpus0.iew.iewDispatchedInsts    413427332                       # Number of instructions dispatched to IQ
system.switch_cpus0.iew.iewExecLoadInsts     69383336                       # Number of load instructions executed
system.switch_cpus0.iew.iewExecSquashedInsts        56101                       # Number of squashed instructions skipped in execute
system.switch_cpus0.iew.iewExecutedInsts    413120233                       # Number of executed instructions
system.switch_cpus0.iew.iewIQFullEvents        147666                       # Number of times the IQ has become full, causing a stall
system.switch_cpus0.iew.iewIdleCycles               0                       # Number of cycles IEW is idle
system.switch_cpus0.iew.iewLSQFullEvents     23566375                       # Number of times the LSQ has become full, causing a stall
system.switch_cpus0.iew.iewSquashCycles         20797                       # Number of cycles IEW is squashing
system.switch_cpus0.iew.iewUnblockCycles     23830864                       # Number of cycles IEW is unblocking
system.switch_cpus0.iew.memOrderViolationEvents         2271                       # Number of memory order violations
system.switch_cpus0.iew.predictedNotTakenIncorrect         6326                       # Number of branches that were predicted not taken incorrectly
system.switch_cpus0.iew.predictedTakenIncorrect        12676                       # Number of branches that were predicted taken incorrectly
system.switch_cpus0.iew.wb_consumers        507940032                       # num instructions consuming a value
system.switch_cpus0.iew.wb_count            413077500                       # cumulative count of insts written-back
system.switch_cpus0.iew.wb_fanout            0.602703                       # average fanout of values written-back
system.switch_cpus0.iew.wb_producers        306136896                       # num instructions producing a value
system.switch_cpus0.iew.wb_rate              1.542032                       # insts written-back per cycle
system.switch_cpus0.iew.wb_sent             413096417                       # cumulative count of insts sent to commit
system.switch_cpus0.int_regfile_reads       405481657                       # number of integer regfile reads
system.switch_cpus0.int_regfile_writes      190914818                       # number of integer regfile writes
system.switch_cpus0.ipc                      0.933258                       # IPC: Instructions Per Cycle
system.switch_cpus0.ipc_total                0.933258                       # IPC: Total IPC of All Threads
system.switch_cpus0.iq.FU_type_0::No_OpClass        11926      0.00%      0.00% # Type of FU issued
system.switch_cpus0.iq.FU_type_0::IntAlu    221793483     53.68%     53.68% # Type of FU issued
system.switch_cpus0.iq.FU_type_0::IntMult        17895      0.00%     53.69% # Type of FU issued
system.switch_cpus0.iq.FU_type_0::IntDiv            0      0.00%     53.69% # Type of FU issued
system.switch_cpus0.iq.FU_type_0::FloatAdd     12497645      3.02%     56.71% # Type of FU issued
system.switch_cpus0.iq.FU_type_0::FloatCmp            0      0.00%     56.71% # Type of FU issued
system.switch_cpus0.iq.FU_type_0::FloatCvt            0      0.00%     56.71% # Type of FU issued
system.switch_cpus0.iq.FU_type_0::FloatMult            0      0.00%     56.71% # Type of FU issued
system.switch_cpus0.iq.FU_type_0::FloatMultAcc            0      0.00%     56.71% # Type of FU issued
system.switch_cpus0.iq.FU_type_0::FloatDiv            0      0.00%     56.71% # Type of FU issued
system.switch_cpus0.iq.FU_type_0::FloatMisc            0      0.00%     56.71% # Type of FU issued
system.switch_cpus0.iq.FU_type_0::FloatSqrt            0      0.00%     56.71% # Type of FU issued
system.switch_cpus0.iq.FU_type_0::SimdAdd            0      0.00%     56.71% # Type of FU issued
system.switch_cpus0.iq.FU_type_0::SimdAddAcc            0      0.00%     56.71% # Type of FU issued
system.switch_cpus0.iq.FU_type_0::SimdAlu      8957241      2.17%     58.88% # Type of FU issued
system.switch_cpus0.iq.FU_type_0::SimdCmp            0      0.00%     58.88% # Type of FU issued
system.switch_cpus0.iq.FU_type_0::SimdCvt            0      0.00%     58.88% # Type of FU issued
system.switch_cpus0.iq.FU_type_0::SimdMisc      5331537      1.29%     60.17% # Type of FU issued
system.switch_cpus0.iq.FU_type_0::SimdMult            0      0.00%     60.17% # Type of FU issued
system.switch_cpus0.iq.FU_type_0::SimdMultAcc            0      0.00%     60.17% # Type of FU issued
system.switch_cpus0.iq.FU_type_0::SimdShift            0      0.00%     60.17% # Type of FU issued
system.switch_cpus0.iq.FU_type_0::SimdShiftAcc            0      0.00%     60.17% # Type of FU issued
system.switch_cpus0.iq.FU_type_0::SimdDiv            0      0.00%     60.17% # Type of FU issued
system.switch_cpus0.iq.FU_type_0::SimdSqrt            0      0.00%     60.17% # Type of FU issued
system.switch_cpus0.iq.FU_type_0::SimdFloatAdd     30064228      7.28%     67.45% # Type of FU issued
system.switch_cpus0.iq.FU_type_0::SimdFloatAlu            0      0.00%     67.45% # Type of FU issued
system.switch_cpus0.iq.FU_type_0::SimdFloatCmp       376832      0.09%     67.54% # Type of FU issued
system.switch_cpus0.iq.FU_type_0::SimdFloatCvt      6594534      1.60%     69.13% # Type of FU issued
system.switch_cpus0.iq.FU_type_0::SimdFloatDiv      3034038      0.73%     69.87% # Type of FU issued
system.switch_cpus0.iq.FU_type_0::SimdFloatMisc            0      0.00%     69.87% # Type of FU issued
system.switch_cpus0.iq.FU_type_0::SimdFloatMult     27037237      6.54%     76.41% # Type of FU issued
system.switch_cpus0.iq.FU_type_0::SimdFloatMultAcc            0      0.00%     76.41% # Type of FU issued
system.switch_cpus0.iq.FU_type_0::SimdFloatSqrt       506044      0.12%     76.53% # Type of FU issued
system.switch_cpus0.iq.FU_type_0::SimdReduceAdd            0      0.00%     76.53% # Type of FU issued
system.switch_cpus0.iq.FU_type_0::SimdReduceAlu            0      0.00%     76.53% # Type of FU issued
system.switch_cpus0.iq.FU_type_0::SimdReduceCmp            0      0.00%     76.53% # Type of FU issued
system.switch_cpus0.iq.FU_type_0::SimdFloatReduceAdd            0      0.00%     76.53% # Type of FU issued
system.switch_cpus0.iq.FU_type_0::SimdFloatReduceCmp            0      0.00%     76.53% # Type of FU issued
system.switch_cpus0.iq.FU_type_0::SimdAes            0      0.00%     76.53% # Type of FU issued
system.switch_cpus0.iq.FU_type_0::SimdAesMix            0      0.00%     76.53% # Type of FU issued
system.switch_cpus0.iq.FU_type_0::SimdSha1Hash            0      0.00%     76.53% # Type of FU issued
system.switch_cpus0.iq.FU_type_0::SimdSha1Hash2            0      0.00%     76.53% # Type of FU issued
system.switch_cpus0.iq.FU_type_0::SimdSha256Hash            0      0.00%     76.53% # Type of FU issued
system.switch_cpus0.iq.FU_type_0::SimdSha256Hash2            0      0.00%     76.53% # Type of FU issued
system.switch_cpus0.iq.FU_type_0::SimdShaSigma2            0      0.00%     76.53% # Type of FU issued
system.switch_cpus0.iq.FU_type_0::SimdShaSigma3            0      0.00%     76.53% # Type of FU issued
system.switch_cpus0.iq.FU_type_0::SimdPredAlu            0      0.00%     76.53% # Type of FU issued
system.switch_cpus0.iq.FU_type_0::MemRead     26779115      6.48%     83.02% # Type of FU issued
system.switch_cpus0.iq.FU_type_0::MemWrite     13501390      3.27%     86.28% # Type of FU issued
system.switch_cpus0.iq.FU_type_0::FloatMemRead     42622501     10.32%     96.60% # Type of FU issued
system.switch_cpus0.iq.FU_type_0::FloatMemWrite     14050691      3.40%    100.00% # Type of FU issued
system.switch_cpus0.iq.FU_type_0::IprAccess            0      0.00%    100.00% # Type of FU issued
system.switch_cpus0.iq.FU_type_0::InstPrefetch            0      0.00%    100.00% # Type of FU issued
system.switch_cpus0.iq.FU_type_0::total     413176337                       # Type of FU issued
system.switch_cpus0.iq.fp_alu_accesses      187497217                       # Number of floating point alu accesses
system.switch_cpus0.iq.fp_inst_queue_reads    373079325                       # Number of floating instruction queue reads
system.switch_cpus0.iq.fp_inst_queue_wakeup_accesses    185534375                       # Number of floating instruction queue wakeup accesses
system.switch_cpus0.iq.fp_inst_queue_writes    185989622                       # Number of floating instruction queue writes
system.switch_cpus0.iq.fu_busy_cnt            6579506                       # FU busy when requested
system.switch_cpus0.iq.fu_busy_rate          0.015924                       # FU busy rate (busy events/executed inst)
system.switch_cpus0.iq.fu_full::No_OpClass            0      0.00%      0.00% # attempts to use FU when none available
system.switch_cpus0.iq.fu_full::IntAlu        2866876     43.57%     43.57% # attempts to use FU when none available
system.switch_cpus0.iq.fu_full::IntMult             0      0.00%     43.57% # attempts to use FU when none available
system.switch_cpus0.iq.fu_full::IntDiv              0      0.00%     43.57% # attempts to use FU when none available
system.switch_cpus0.iq.fu_full::FloatAdd          484      0.01%     43.58% # attempts to use FU when none available
system.switch_cpus0.iq.fu_full::FloatCmp            0      0.00%     43.58% # attempts to use FU when none available
system.switch_cpus0.iq.fu_full::FloatCvt            0      0.00%     43.58% # attempts to use FU when none available
system.switch_cpus0.iq.fu_full::FloatMult            0      0.00%     43.58% # attempts to use FU when none available
system.switch_cpus0.iq.fu_full::FloatMultAcc            0      0.00%     43.58% # attempts to use FU when none available
system.switch_cpus0.iq.fu_full::FloatDiv            0      0.00%     43.58% # attempts to use FU when none available
system.switch_cpus0.iq.fu_full::FloatMisc            0      0.00%     43.58% # attempts to use FU when none available
system.switch_cpus0.iq.fu_full::FloatSqrt            0      0.00%     43.58% # attempts to use FU when none available
system.switch_cpus0.iq.fu_full::SimdAdd             0      0.00%     43.58% # attempts to use FU when none available
system.switch_cpus0.iq.fu_full::SimdAddAcc            0      0.00%     43.58% # attempts to use FU when none available
system.switch_cpus0.iq.fu_full::SimdAlu        117851      1.79%     45.37% # attempts to use FU when none available
system.switch_cpus0.iq.fu_full::SimdCmp             0      0.00%     45.37% # attempts to use FU when none available
system.switch_cpus0.iq.fu_full::SimdCvt             0      0.00%     45.37% # attempts to use FU when none available
system.switch_cpus0.iq.fu_full::SimdMisc            0      0.00%     45.37% # attempts to use FU when none available
system.switch_cpus0.iq.fu_full::SimdMult            0      0.00%     45.37% # attempts to use FU when none available
system.switch_cpus0.iq.fu_full::SimdMultAcc            0      0.00%     45.37% # attempts to use FU when none available
system.switch_cpus0.iq.fu_full::SimdShift            0      0.00%     45.37% # attempts to use FU when none available
system.switch_cpus0.iq.fu_full::SimdShiftAcc            0      0.00%     45.37% # attempts to use FU when none available
system.switch_cpus0.iq.fu_full::SimdDiv             0      0.00%     45.37% # attempts to use FU when none available
system.switch_cpus0.iq.fu_full::SimdSqrt            0      0.00%     45.37% # attempts to use FU when none available
system.switch_cpus0.iq.fu_full::SimdFloatAdd       162794      2.47%     47.85% # attempts to use FU when none available
system.switch_cpus0.iq.fu_full::SimdFloatAlu            0      0.00%     47.85% # attempts to use FU when none available
system.switch_cpus0.iq.fu_full::SimdFloatCmp            0      0.00%     47.85% # attempts to use FU when none available
system.switch_cpus0.iq.fu_full::SimdFloatCvt          519      0.01%     47.85% # attempts to use FU when none available
system.switch_cpus0.iq.fu_full::SimdFloatDiv        19483      0.30%     48.15% # attempts to use FU when none available
system.switch_cpus0.iq.fu_full::SimdFloatMisc            0      0.00%     48.15% # attempts to use FU when none available
system.switch_cpus0.iq.fu_full::SimdFloatMult       239153      3.63%     51.78% # attempts to use FU when none available
system.switch_cpus0.iq.fu_full::SimdFloatMultAcc            0      0.00%     51.78% # attempts to use FU when none available
system.switch_cpus0.iq.fu_full::SimdFloatSqrt          333      0.01%     51.79% # attempts to use FU when none available
system.switch_cpus0.iq.fu_full::SimdReduceAdd            0      0.00%     51.79% # attempts to use FU when none available
system.switch_cpus0.iq.fu_full::SimdReduceAlu            0      0.00%     51.79% # attempts to use FU when none available
system.switch_cpus0.iq.fu_full::SimdReduceCmp            0      0.00%     51.79% # attempts to use FU when none available
system.switch_cpus0.iq.fu_full::SimdFloatReduceAdd            0      0.00%     51.79% # attempts to use FU when none available
system.switch_cpus0.iq.fu_full::SimdFloatReduceCmp            0      0.00%     51.79% # attempts to use FU when none available
system.switch_cpus0.iq.fu_full::SimdAes             0      0.00%     51.79% # attempts to use FU when none available
system.switch_cpus0.iq.fu_full::SimdAesMix            0      0.00%     51.79% # attempts to use FU when none available
system.switch_cpus0.iq.fu_full::SimdSha1Hash            0      0.00%     51.79% # attempts to use FU when none available
system.switch_cpus0.iq.fu_full::SimdSha1Hash2            0      0.00%     51.79% # attempts to use FU when none available
system.switch_cpus0.iq.fu_full::SimdSha256Hash            0      0.00%     51.79% # attempts to use FU when none available
system.switch_cpus0.iq.fu_full::SimdSha256Hash2            0      0.00%     51.79% # attempts to use FU when none available
system.switch_cpus0.iq.fu_full::SimdShaSigma2            0      0.00%     51.79% # attempts to use FU when none available
system.switch_cpus0.iq.fu_full::SimdShaSigma3            0      0.00%     51.79% # attempts to use FU when none available
system.switch_cpus0.iq.fu_full::SimdPredAlu            0      0.00%     51.79% # attempts to use FU when none available
system.switch_cpus0.iq.fu_full::MemRead       1295823     19.69%     71.48% # attempts to use FU when none available
system.switch_cpus0.iq.fu_full::MemWrite       549668      8.35%     79.84% # attempts to use FU when none available
system.switch_cpus0.iq.fu_full::FloatMemRead      1035864     15.74%     95.58% # attempts to use FU when none available
system.switch_cpus0.iq.fu_full::FloatMemWrite       290658      4.42%    100.00% # attempts to use FU when none available
system.switch_cpus0.iq.fu_full::IprAccess            0      0.00%    100.00% # attempts to use FU when none available
system.switch_cpus0.iq.fu_full::InstPrefetch            0      0.00%    100.00% # attempts to use FU when none available
system.switch_cpus0.iq.int_alu_accesses     232246700                       # Number of integer alu accesses
system.switch_cpus0.iq.int_inst_queue_reads    727649210                       # Number of integer instruction queue reads
system.switch_cpus0.iq.int_inst_queue_wakeup_accesses    227543125                       # Number of integer instruction queue wakeup accesses
system.switch_cpus0.iq.int_inst_queue_writes    228149530                       # Number of integer instruction queue writes
system.switch_cpus0.iq.iqInstsAdded         413427323                       # Number of instructions added to the IQ (excludes non-spec)
system.switch_cpus0.iq.iqInstsIssued        413176337                       # Number of instructions issued
system.switch_cpus0.iq.iqNonSpecInstsAdded            9                       # Number of non-speculative instructions added to the IQ
system.switch_cpus0.iq.iqSquashedInstsExamined       709573                       # Number of squashed instructions iterated over during squash; mainly for profiling
system.switch_cpus0.iq.iqSquashedInstsIssued        15212                       # Number of squashed instructions issued
system.switch_cpus0.iq.iqSquashedNonSpecRemoved            9                       # Number of squashed non-spec instructions that were removed
system.switch_cpus0.iq.iqSquashedOperandsExamined      1102054                       # Number of squashed operands that are examined and possibly removed from graph
system.switch_cpus0.iq.issued_per_cycle::samples    267781146                       # Number of insts issued each cycle
system.switch_cpus0.iq.issued_per_cycle::mean     1.542963                       # Number of insts issued each cycle
system.switch_cpus0.iq.issued_per_cycle::stdev     2.692455                       # Number of insts issued each cycle
system.switch_cpus0.iq.issued_per_cycle::underflows            0      0.00%      0.00% # Number of insts issued each cycle
system.switch_cpus0.iq.issued_per_cycle::0    189610910     70.81%     70.81% # Number of insts issued each cycle
system.switch_cpus0.iq.issued_per_cycle::1      5943793      2.22%     73.03% # Number of insts issued each cycle
system.switch_cpus0.iq.issued_per_cycle::2      6015912      2.25%     75.27% # Number of insts issued each cycle
system.switch_cpus0.iq.issued_per_cycle::3      6437898      2.40%     77.68% # Number of insts issued each cycle
system.switch_cpus0.iq.issued_per_cycle::4      9592947      3.58%     81.26% # Number of insts issued each cycle
system.switch_cpus0.iq.issued_per_cycle::5     10767223      4.02%     85.28% # Number of insts issued each cycle
system.switch_cpus0.iq.issued_per_cycle::6     10019791      3.74%     89.02% # Number of insts issued each cycle
system.switch_cpus0.iq.issued_per_cycle::7     11580999      4.32%     93.35% # Number of insts issued each cycle
system.switch_cpus0.iq.issued_per_cycle::8     17811673      6.65%    100.00% # Number of insts issued each cycle
system.switch_cpus0.iq.issued_per_cycle::overflows            0      0.00%    100.00% # Number of insts issued each cycle
system.switch_cpus0.iq.issued_per_cycle::min_value            0                       # Number of insts issued each cycle
system.switch_cpus0.iq.issued_per_cycle::max_value            8                       # Number of insts issued each cycle
system.switch_cpus0.iq.issued_per_cycle::total    267781146                       # Number of insts issued each cycle
system.switch_cpus0.iq.rate                  1.542401                       # Inst issue rate
system.switch_cpus0.iq.vec_alu_accesses             0                       # Number of vector alu accesses
system.switch_cpus0.iq.vec_inst_queue_reads            0                       # Number of vector instruction queue reads
system.switch_cpus0.iq.vec_inst_queue_wakeup_accesses            0                       # Number of vector instruction queue wakeup accesses
system.switch_cpus0.iq.vec_inst_queue_writes            0                       # Number of vector instruction queue writes
system.switch_cpus0.memDep0.conflictingLoads      1681617                       # Number of conflicting loads.
system.switch_cpus0.memDep0.conflictingStores      1401741                       # Number of conflicting stores.
system.switch_cpus0.memDep0.insertedLoads     69427574                       # Number of loads inserted to the mem dependence unit.
system.switch_cpus0.memDep0.insertedStores     27595254                       # Number of stores inserted to the mem dependence unit.
system.switch_cpus0.misc_regfile_reads      170970240                       # number of misc regfile reads
system.switch_cpus0.misc_regfile_writes             1                       # number of misc regfile writes
system.switch_cpus0.numCycles               267878680                       # number of cpu cycles simulated
system.switch_cpus0.numWorkItemsCompleted            0                       # number of work items this cpu completed
system.switch_cpus0.numWorkItemsStarted             0                       # number of work items this cpu started
system.switch_cpus0.timesIdled                    373                       # Number of times that the entire CPU went into an idle state and unscheduled itself
system.switch_cpus1.cc_regfile_reads        130716266                       # number of cc regfile reads
system.switch_cpus1.cc_regfile_writes        97931668                       # number of cc regfile writes
system.switch_cpus1.committedInsts          249999943                       # Number of Instructions Simulated
system.switch_cpus1.committedOps            412717577                       # Number of Ops (including micro ops) Simulated
system.switch_cpus1.cpi                      1.071515                       # CPI: Cycles Per Instruction
system.switch_cpus1.cpi_total                1.071515                       # CPI: Total CPI of All Threads
system.switch_cpus1.fp_regfile_reads        302028230                       # number of floating regfile reads
system.switch_cpus1.fp_regfile_writes       159571168                       # number of floating regfile writes
system.switch_cpus1.idleCycles                  87682                       # Total number of cycles that the CPU has spent unscheduled due to idling
system.switch_cpus1.iew.branchMispredicts        18992                       # Number of branch mispredicts detected at execute
system.switch_cpus1.iew.exec_branches        28475728                       # Number of branches executed
system.switch_cpus1.iew.exec_nop                    0                       # number of nop insts executed
system.switch_cpus1.iew.exec_rate            1.542192                       # Inst execution rate
system.switch_cpus1.iew.exec_refs            96922303                       # number of memory reference insts executed
system.switch_cpus1.iew.exec_stores          27538816                       # Number of stores executed
system.switch_cpus1.iew.exec_swp                    0                       # number of swp insts executed
system.switch_cpus1.iew.iewBlockCycles       52637962                       # Number of cycles IEW is blocking
system.switch_cpus1.iew.iewDispLoadInsts     69427977                       # Number of dispatched load instructions
system.switch_cpus1.iew.iewDispNonSpecInsts            3                       # Number of dispatched non-speculative instructions
system.switch_cpus1.iew.iewDispSquashedInsts          565                       # Number of squashed instructions skipped by dispatch
system.switch_cpus1.iew.iewDispStoreInsts     27595323                       # Number of dispatched store instructions
system.switch_cpus1.iew.iewDispatchedInsts    413427983                       # Number of instructions dispatched to IQ
system.switch_cpus1.iew.iewExecLoadInsts     69383487                       # Number of load instructions executed
system.switch_cpus1.iew.iewExecSquashedInsts        56169                       # Number of squashed instructions skipped in execute
system.switch_cpus1.iew.iewExecutedInsts    413120307                       # Number of executed instructions
system.switch_cpus1.iew.iewIQFullEvents        147900                       # Number of times the IQ has become full, causing a stall
system.switch_cpus1.iew.iewIdleCycles               0                       # Number of cycles IEW is idle
system.switch_cpus1.iew.iewLSQFullEvents     23590717                       # Number of times the LSQ has become full, causing a stall
system.switch_cpus1.iew.iewSquashCycles         20802                       # Number of cycles IEW is squashing
system.switch_cpus1.iew.iewUnblockCycles     23856712                       # Number of cycles IEW is unblocking
system.switch_cpus1.iew.memOrderViolationEvents         2267                       # Number of memory order violations
system.switch_cpus1.iew.predictedNotTakenIncorrect         6317                       # Number of branches that were predicted not taken incorrectly
system.switch_cpus1.iew.predictedTakenIncorrect        12675                       # Number of branches that were predicted taken incorrectly
system.switch_cpus1.iew.wb_consumers        507956168                       # num instructions consuming a value
system.switch_cpus1.iew.wb_count            413077486                       # cumulative count of insts written-back
system.switch_cpus1.iew.wb_fanout            0.602682                       # average fanout of values written-back
system.switch_cpus1.iew.wb_producers        306136094                       # num instructions producing a value
system.switch_cpus1.iew.wb_rate              1.542032                       # insts written-back per cycle
system.switch_cpus1.iew.wb_sent             413096463                       # cumulative count of insts sent to commit
system.switch_cpus1.int_regfile_reads       405482159                       # number of integer regfile reads
system.switch_cpus1.int_regfile_writes      190915096                       # number of integer regfile writes
system.switch_cpus1.ipc                      0.933258                       # IPC: Instructions Per Cycle
system.switch_cpus1.ipc_total                0.933258                       # IPC: Total IPC of All Threads
system.switch_cpus1.iq.FU_type_0::No_OpClass        11936      0.00%      0.00% # Type of FU issued
system.switch_cpus1.iq.FU_type_0::IntAlu    221793581     53.68%     53.68% # Type of FU issued
system.switch_cpus1.iq.FU_type_0::IntMult        17895      0.00%     53.69% # Type of FU issued
system.switch_cpus1.iq.FU_type_0::IntDiv            0      0.00%     53.69% # Type of FU issued
system.switch_cpus1.iq.FU_type_0::FloatAdd     12497636      3.02%     56.71% # Type of FU issued
system.switch_cpus1.iq.FU_type_0::FloatCmp            0      0.00%     56.71% # Type of FU issued
system.switch_cpus1.iq.FU_type_0::FloatCvt            0      0.00%     56.71% # Type of FU issued
system.switch_cpus1.iq.FU_type_0::FloatMult            0      0.00%     56.71% # Type of FU issued
system.switch_cpus1.iq.FU_type_0::FloatMultAcc            0      0.00%     56.71% # Type of FU issued
system.switch_cpus1.iq.FU_type_0::FloatDiv            0      0.00%     56.71% # Type of FU issued
system.switch_cpus1.iq.FU_type_0::FloatMisc            0      0.00%     56.71% # Type of FU issued
system.switch_cpus1.iq.FU_type_0::FloatSqrt            0      0.00%     56.71% # Type of FU issued
system.switch_cpus1.iq.FU_type_0::SimdAdd            0      0.00%     56.71% # Type of FU issued
system.switch_cpus1.iq.FU_type_0::SimdAddAcc            0      0.00%     56.71% # Type of FU issued
system.switch_cpus1.iq.FU_type_0::SimdAlu      8957163      2.17%     58.88% # Type of FU issued
system.switch_cpus1.iq.FU_type_0::SimdCmp            0      0.00%     58.88% # Type of FU issued
system.switch_cpus1.iq.FU_type_0::SimdCvt            0      0.00%     58.88% # Type of FU issued
system.switch_cpus1.iq.FU_type_0::SimdMisc      5331549      1.29%     60.17% # Type of FU issued
system.switch_cpus1.iq.FU_type_0::SimdMult            0      0.00%     60.17% # Type of FU issued
system.switch_cpus1.iq.FU_type_0::SimdMultAcc            0      0.00%     60.17% # Type of FU issued
system.switch_cpus1.iq.FU_type_0::SimdShift            0      0.00%     60.17% # Type of FU issued
system.switch_cpus1.iq.FU_type_0::SimdShiftAcc            0      0.00%     60.17% # Type of FU issued
system.switch_cpus1.iq.FU_type_0::SimdDiv            0      0.00%     60.17% # Type of FU issued
system.switch_cpus1.iq.FU_type_0::SimdSqrt            0      0.00%     60.17% # Type of FU issued
system.switch_cpus1.iq.FU_type_0::SimdFloatAdd     30064210      7.28%     67.45% # Type of FU issued
system.switch_cpus1.iq.FU_type_0::SimdFloatAlu            0      0.00%     67.45% # Type of FU issued
system.switch_cpus1.iq.FU_type_0::SimdFloatCmp       376832      0.09%     67.54% # Type of FU issued
system.switch_cpus1.iq.FU_type_0::SimdFloatCvt      6594481      1.60%     69.13% # Type of FU issued
system.switch_cpus1.iq.FU_type_0::SimdFloatDiv      3034038      0.73%     69.87% # Type of FU issued
system.switch_cpus1.iq.FU_type_0::SimdFloatMisc            0      0.00%     69.87% # Type of FU issued
system.switch_cpus1.iq.FU_type_0::SimdFloatMult     27037191      6.54%     76.41% # Type of FU issued
system.switch_cpus1.iq.FU_type_0::SimdFloatMultAcc            0      0.00%     76.41% # Type of FU issued
system.switch_cpus1.iq.FU_type_0::SimdFloatSqrt       506044      0.12%     76.53% # Type of FU issued
system.switch_cpus1.iq.FU_type_0::SimdReduceAdd            0      0.00%     76.53% # Type of FU issued
system.switch_cpus1.iq.FU_type_0::SimdReduceAlu            0      0.00%     76.53% # Type of FU issued
system.switch_cpus1.iq.FU_type_0::SimdReduceCmp            0      0.00%     76.53% # Type of FU issued
system.switch_cpus1.iq.FU_type_0::SimdFloatReduceAdd            0      0.00%     76.53% # Type of FU issued
system.switch_cpus1.iq.FU_type_0::SimdFloatReduceCmp            0      0.00%     76.53% # Type of FU issued
[...]
system.switch_cpus3.commit.numCommittedDist::0    195766859     73.13%     73.13% # Number of insts commited each cycle
system.switch_cpus3.commit.numCommittedDist::1     11965274      4.47%     77.60% # Number of insts commited each cycle
system.switch_cpus3.commit.numCommittedDist::2      4552367      1.70%     79.30% # Number of insts commited each cycle
system.switch_cpus3.commit.numCommittedDist::3      5275747      1.97%     81.27% # Number of insts commited each cycle
system.switch_cpus3.commit.numCommittedDist::4      3252625      1.22%     82.49% # Number of insts commited each cycle
system.switch_cpus3.commit.numCommittedDist::5      2160096      0.81%     83.30% # Number of insts commited each cycle
system.switch_cpus3.commit.numCommittedDist::6      1651612      0.62%     83.91% # Number of insts commited each cycle
system.switch_cpus3.commit.numCommittedDist::7      2403342      0.90%     84.81% # Number of insts commited each cycle
system.switch_cpus3.commit.numCommittedDist::8     40657102     15.19%    100.00% # Number of insts commited each cycle
system.switch_cpus3.commit.numCommittedDist::overflows            0      0.00%    100.00% # Number of insts commited each cycle
system.switch_cpus3.commit.numCommittedDist::min_value            0                       # Number of insts commited each cycle
system.switch_cpus3.commit.numCommittedDist::max_value            8                       # Number of insts commited each cycle
system.switch_cpus3.commit.numCommittedDist::total    267685024                       # Number of insts commited each cycle
system.switch_cpus3.commit.instsCommitted    249988301                       # Number of instructions committed
system.switch_cpus3.commit.opsCommitted     412698111                       # Number of ops (including micro ops) committed
system.switch_cpus3.commit.memRefs           96731333                       # Number of memory references committed
system.switch_cpus3.commit.loads             69243311                       # Number of loads committed
system.switch_cpus3.commit.amos                     0                       # Number of atomic instructions committed
system.switch_cpus3.commit.membars                  0                       # Number of memory barriers committed
system.switch_cpus3.commit.branches          28459905                       # Number of branches committed
system.switch_cpus3.commit.vector                   0                       # Number of committed Vector instructions.
system.switch_cpus3.commit.floating         185437511                       # Number of committed floating point instructions.
system.switch_cpus3.commit.integer          289157310                       # Number of committed integer instructions.
system.switch_cpus3.commit.functionCalls      2180801                       # Number of function calls committed.
system.switch_cpus3.commit.committedInstType_0::No_OpClass        11422      0.00%      0.00% # Class of committed instruction
system.switch_cpus3.commit.committedInstType_0::IntAlu    221572802     53.69%     53.69% # Class of committed instruction
system.switch_cpus3.commit.committedInstType_0::IntMult        17852      0.00%     53.70% # Class of committed instruction
system.switch_cpus3.commit.committedInstType_0::IntDiv            0      0.00%     53.70% # Class of committed instruction
system.switch_cpus3.commit.committedInstType_0::FloatAdd     12496110      3.03%     56.72% # Class of committed instruction
system.switch_cpus3.commit.committedInstType_0::FloatCmp            0      0.00%     56.72% # Class of committed instruction
system.switch_cpus3.commit.committedInstType_0::FloatCvt            0      0.00%     56.72% # Class of committed instruction
system.switch_cpus3.commit.committedInstType_0::FloatMult            0      0.00%     56.72% # Class of committed instruction
system.switch_cpus3.commit.committedInstType_0::FloatMultAcc            0      0.00%     56.72% # Class of committed instruction
system.switch_cpus3.commit.committedInstType_0::FloatDiv            0      0.00%     56.72% # Class of committed instruction
system.switch_cpus3.commit.committedInstType_0::FloatMisc            0      0.00%     56.72% # Class of committed instruction
system.switch_cpus3.commit.committedInstType_0::FloatSqrt            0      0.00%     56.72% # Class of committed instruction
system.switch_cpus3.commit.committedInstType_0::SimdAdd            0      0.00%     56.72% # Class of committed instruction
system.switch_cpus3.commit.committedInstType_0::SimdAddAcc            0      0.00%     56.72% # Class of committed instruction
system.switch_cpus3.commit.committedInstType_0::SimdAlu      8951086      2.17%     58.89% # Class of committed instruction
system.switch_cpus3.commit.committedInstType_0::SimdCmp            0      0.00%     58.89% # Class of committed instruction
system.switch_cpus3.commit.committedInstType_0::SimdCvt            0      0.00%     58.89% # Class of committed instruction
system.switch_cpus3.commit.committedInstType_0::SimdMisc      5330786      1.29%     60.18% # Class of committed instruction
system.switch_cpus3.commit.committedInstType_0::SimdMult            0      0.00%     60.18% # Class of committed instruction
system.switch_cpus3.commit.committedInstType_0::SimdMultAcc            0      0.00%     60.18% # Class of committed instruction
system.switch_cpus3.commit.committedInstType_0::SimdShift            0      0.00%     60.18% # Class of committed instruction
system.switch_cpus3.commit.committedInstType_0::SimdShiftAcc            0      0.00%     60.18% # Class of committed instruction
system.switch_cpus3.commit.committedInstType_0::SimdDiv            0      0.00%     60.18% # Class of committed instruction
system.switch_cpus3.commit.committedInstType_0::SimdSqrt            0      0.00%     60.18% # Class of committed instruction
system.switch_cpus3.commit.committedInstType_0::SimdFloatAdd     30056151      7.28%     67.47% # Class of committed instruction
system.switch_cpus3.commit.committedInstType_0::SimdFloatAlu            0      0.00%     67.47% # Class of committed instruction
system.switch_cpus3.commit.committedInstType_0::SimdFloatCmp       376832      0.09%     67.56% # Class of committed instruction
system.switch_cpus3.commit.committedInstType_0::SimdFloatCvt      6587217      1.60%     69.15% # Class of committed instruction
system.switch_cpus3.commit.committedInstType_0::SimdFloatDiv      3034021      0.74%     69.89% # Class of committed instruction
system.switch_cpus3.commit.committedInstType_0::SimdFloatMisc            0      0.00%     69.89% # Class of committed instruction
system.switch_cpus3.commit.committedInstType_0::SimdFloatMult     27026468      6.55%     76.44% # Class of committed instruction
system.switch_cpus3.commit.committedInstType_0::SimdFloatMultAcc            0      0.00%     76.44% # Class of committed instruction
system.switch_cpus3.commit.committedInstType_0::SimdFloatSqrt       506031      0.12%     76.56% # Class of committed instruction
system.switch_cpus3.commit.committedInstType_0::SimdReduceAdd            0      0.00%     76.56% # Class of committed instruction
system.switch_cpus3.commit.committedInstType_0::SimdReduceAlu            0      0.00%     76.56% # Class of committed instruction
system.switch_cpus3.commit.committedInstType_0::SimdReduceCmp            0      0.00%     76.56% # Class of committed instruction
system.switch_cpus3.commit.committedInstType_0::SimdFloatReduceAdd            0      0.00%     76.56% # Class of committed instruction
system.switch_cpus3.commit.committedInstType_0::SimdFloatReduceCmp            0      0.00%     76.56% # Class of committed instruction
system.switch_cpus3.commit.committedInstType_0::SimdAes            0      0.00%     76.56% # Class of committed instruction
system.switch_cpus3.commit.committedInstType_0::SimdAesMix            0      0.00%     76.56% # Class of committed instruction
system.switch_cpus3.commit.committedInstType_0::SimdSha1Hash            0      0.00%     76.56% # Class of committed instruction
system.switch_cpus3.commit.committedInstType_0::SimdSha1Hash2            0      0.00%     76.56% # Class of committed instruction
system.switch_cpus3.commit.committedInstType_0::SimdSha256Hash            0      0.00%     76.56% # Class of committed instruction
system.switch_cpus3.commit.committedInstType_0::SimdSha256Hash2            0      0.00%     76.56% # Class of committed instruction
system.switch_cpus3.commit.committedInstType_0::SimdShaSigma2            0      0.00%     76.56% # Class of committed instruction
system.switch_cpus3.commit.committedInstType_0::SimdShaSigma3            0      0.00%     76.56% # Class of committed instruction
system.switch_cpus3.commit.committedInstType_0::SimdPredAlu            0      0.00%     76.56% # Class of committed instruction
system.switch_cpus3.commit.committedInstType_0::MemRead     26697360      6.47%     83.03% # Class of committed instruction
system.switch_cpus3.commit.committedInstType_0::MemWrite     13452451      3.26%     86.29% # Class of committed instruction
system.switch_cpus3.commit.committedInstType_0::FloatMemRead     42545951     10.31%     96.60% # Class of committed instruction
system.switch_cpus3.commit.committedInstType_0::FloatMemWrite     14035571      3.40%    100.00% # Class of committed instruction
system.switch_cpus3.commit.committedInstType_0::IprAccess            0      0.00%    100.00% # Class of committed instruction
system.switch_cpus3.commit.committedInstType_0::InstPrefetch            0      0.00%    100.00% # Class of committed instruction
system.switch_cpus3.commit.committedInstType_0::total    412698111                       # Class of committed instruction
system.switch_cpus3.commit.commitEligibleSamples     40657102                       # number cycles where commit BW limit reached
system.switch_cpus3.decode.idleCycles         4122560                       # Number of cycles decode is idle
system.switch_cpus3.decode.blockedCycles    203848595                       # Number of cycles decode is blocked
system.switch_cpus3.decode.runCycles         54255630                       # Number of cycles decode is running
system.switch_cpus3.decode.unblockCycles      5535885                       # Number of cycles decode is unblocking
system.switch_cpus3.decode.squashCycles         20769                       # Number of cycles decode is squashing
system.switch_cpus3.decode.branchResolved      9251021                       # Number of times decode resolved a  branch
system.switch_cpus3.decode.branchMispred          128                       # Number of times decode detected a branch misprediction
system.switch_cpus3.decode.decodedInsts     413705434                       # Number of instructions handled by decode
system.switch_cpus3.decode.squashedInsts          653                       # Number of squashed instructions handled by decode
system.switch_cpus3.dtb.rdAccesses           69378813                       # TLB accesses on read requests
system.switch_cpus3.dtb.wrAccesses           27537494                       # TLB accesses on write requests
system.switch_cpus3.dtb.rdMisses              1092383                       # TLB misses on read requests
system.switch_cpus3.dtb.wrMisses                14185                       # TLB misses on write requests
system.switch_cpus3.dtb.walker.power_state.pwrStateResidencyTicks::UNDEFINED 15740460688095                       # Cumulative time (in ticks) in various power states
system.switch_cpus3.fetch.icacheStallCycles        78223                       # Number of cycles fetch is stalled on an Icache miss
system.switch_cpus3.fetch.insts             250953892                       # Number of instructions fetch has processed
system.switch_cpus3.fetch.branches           28544466                       # Number of branches that fetch encountered
system.switch_cpus3.fetch.predictedBranches     13751310                       # Number of branches that fetch has predicted taken
system.switch_cpus3.fetch.cycles            267684239                       # Number of cycles fetch has run and was not squashing or blocked
system.switch_cpus3.fetch.squashCycles          41792                       # Number of cycles fetch has spent squashing
system.switch_cpus3.fetch.miscStallCycles           13                       # Number of cycles fetch has spent waiting on interrupts,or bad addresses, or out of MSHRs
system.switch_cpus3.fetch.pendingTrapStallCycles           79                       # Number of stall cycles due to pending traps
system.switch_cpus3.fetch.cacheLines         30571768                       # Number of cache lines fetched
system.switch_cpus3.fetch.icacheSquashes          221                       # Number of outstanding Icache misses that were squashed
system.switch_cpus3.fetch.nisnDist::samples    267783450                       # Number of instructions fetched each cycle (Total)
system.switch_cpus3.fetch.nisnDist::mean     1.546401                       # Number of instructions fetched each cycle (Total)
system.switch_cpus3.fetch.nisnDist::stdev     2.961449                       # Number of instructions fetched each cycle (Total)
system.switch_cpus3.fetch.nisnDist::underflows            0      0.00%      0.00% # Number of instructions fetched each cycle (Total)
system.switch_cpus3.fetch.nisnDist::0       201078332     75.09%     75.09% # Number of instructions fetched each cycle (Total)
system.switch_cpus3.fetch.nisnDist::1         5815693      2.17%     77.26% # Number of instructions fetched each cycle (Total)
system.switch_cpus3.fetch.nisnDist::2         2612719      0.98%     78.24% # Number of instructions fetched each cycle (Total)
system.switch_cpus3.fetch.nisnDist::3         6772583      2.53%     80.77% # Number of instructions fetched each cycle (Total)
system.switch_cpus3.fetch.nisnDist::4         2483407      0.93%     81.69% # Number of instructions fetched each cycle (Total)
system.switch_cpus3.fetch.nisnDist::5         3031081      1.13%     82.83% # Number of instructions fetched each cycle (Total)
system.switch_cpus3.fetch.nisnDist::6         3386492      1.26%     84.09% # Number of instructions fetched each cycle (Total)
system.switch_cpus3.fetch.nisnDist::7         3491396      1.30%     85.39% # Number of instructions fetched each cycle (Total)
system.switch_cpus3.fetch.nisnDist::8        39111747     14.61%    100.00% # Number of instructions fetched each cycle (Total)
system.switch_cpus3.fetch.nisnDist::overflows            0      0.00%    100.00% # Number of instructions fetched each cycle (Total)
system.switch_cpus3.fetch.nisnDist::min_value            0                       # Number of instructions fetched each cycle (Total)
system.switch_cpus3.fetch.nisnDist::max_value            8                       # Number of instructions fetched each cycle (Total)
system.switch_cpus3.fetch.nisnDist::total    267783450                       # Number of instructions fetched each cycle (Total)
system.switch_cpus3.fetch.branchRate         0.106557                       # Number of branch fetches per cycle
system.switch_cpus3.fetch.rate               0.936819                       # Number of inst fetches per cycle
system.switch_cpus3.itb.rdAccesses                  0                       # TLB accesses on read requests
system.switch_cpus3.itb.wrAccesses           30571782                       # TLB accesses on write requests
system.switch_cpus3.itb.rdMisses                    0                       # TLB misses on read requests
system.switch_cpus3.itb.wrMisses                   39                       # TLB misses on write requests
system.switch_cpus3.itb.walker.power_state.pwrStateResidencyTicks::UNDEFINED 15740460688095                       # Cumulative time (in ticks) in various power states
system.switch_cpus3.lsq0.forwLoads            4323749                       # Number of loads that had data forwarded from stores
system.switch_cpus3.lsq0.squashedLoads         180377                       # Number of loads squashed
system.switch_cpus3.lsq0.ignoredResponses          134                       # Number of memory responses ignored because the instruction is squashed
system.switch_cpus3.lsq0.memOrderViolation         2244                       # Number of memory ordering violations
system.switch_cpus3.lsq0.squashedStores        106046                       # Number of stores squashed
system.switch_cpus3.lsq0.rescheduledLoads            1                       # Number of loads that were rescheduled
system.switch_cpus3.lsq0.blockedByCache            42                       # Number of times an access to memory failed due to the cache being blocked
system.switch_cpus3.power_state.pwrStateResidencyTicks::OFF  89203610763                       # Cumulative time (in ticks) in various power states
system.switch_cpus3.rename.squashCycles         20769                       # Number of cycles rename is squashing
system.switch_cpus3.rename.idleCycles         6388781                       # Number of cycles rename is idle
system.switch_cpus3.rename.blockCycles       80044534                       # Number of cycles rename is blocking
system.switch_cpus3.rename.serializeStallCycles            0                       # count of cycles rename stalledfor serializing inst
system.switch_cpus3.rename.runCycles         57426558                       # Number of cycles rename is running
system.switch_cpus3.rename.unblockCycles    123902797                       # Number of cycles rename is unblocking
system.switch_cpus3.rename.renamedInsts     413577864                       # Number of instructions processed by rename
system.switch_cpus3.rename.ROBFullEvents       125996                       # Number of times rename has blocked due to ROB full
system.switch_cpus3.rename.IQFullEvents       6941915                       # Number of times rename has blocked due to IQ full
system.switch_cpus3.rename.LQFullEvents      31243368                       # Number of times rename has blocked due to LQ full
system.switch_cpus3.rename.SQFullEvents      87721335                       # Number of times rename has blocked due to SQ full
system.switch_cpus3.rename.renamedOperands    448900089                       # Number of destination operands rename has renamed
system.switch_cpus3.rename.lookups         1010600192                       # Number of register rename lookups that rename has made
system.switch_cpus3.rename.intLookups       406060682                       # Number of integer rename lookups
system.switch_cpus3.rename.fpLookups        302430086                       # Number of floating rename lookups
system.switch_cpus3.rename.committedMaps    448004085                       # Number of HB maps that are committed
system.switch_cpus3.rename.undoneMaps          895869                       # Number of HB maps that are undone due to squashing
system.switch_cpus3.rename.serializing              0                       # count of serializing insts renamed
system.switch_cpus3.rename.tempSerializing            0                       # count of temporary serializing insts renamed
system.switch_cpus3.rename.skidInsts         27885673                       # count of insts added to the skid buffer
system.switch_cpus3.rob.reads               640435529                       # The number of ROB reads
system.switch_cpus3.rob.writes              826913882                       # The number of ROB writes
system.switch_cpus3.thread0.numInsts        249988301                       # Number of Instructions committed
system.switch_cpus3.thread0.numOps          412698111                       # Number of Ops committed
system.switch_cpus3.thread0.numMemRefs              0                       # Number of Memory References
system.voltage_domain.voltage                       1                       # Voltage in Volts

---------- End Simulation Statistics   ----------
