Command line:
./runscript_pride.sh mix6 RFM5.BR2.4C 4 2017 --rh_defense --rh_mitigation=RFM --rh_rfm_per_trefi=5 --rh_rfm_blast_radius=2 --rh_rfm_maxacts_per_trefi=79
Global frequency set at 1000000000000 ticks per second
RFM details - rfm_act_threshold: 15, blast_radius: 2, delay_per_rfm: 175000 ps. sample_rate: 0.062500
RH Defense config: RFM, Bus Delay: 0, rfms_per_trefi: 5, rfm_act_threshold: 15, blast_radius: 2,rfm_delay_per_act: 45000 ps.
DRAM config: RowsPerBank: 65536, BanksPerRank: 32, RanksPerChannel: 1
warn: Sockets disabled, not accepting gdb connections
warn: CoherentXBar system.cpu0.mmucache.mmubus has no snooping ports attached!
warn: CoherentXBar system.cpu1.mmucache.mmubus has no snooping ports attached!
warn: CoherentXBar system.cpu2.mmucache.mmubus has no snooping ports attached!
warn: CoherentXBar system.cpu3.mmucache.mmubus has no snooping ports attached!
warn: Checkpoints for file descriptors currently do not work.
warn: Checkpoints for file descriptors currently do not work.
warn: Checkpoints for file descriptors currently do not work.
warn: Checkpoints for file descriptors currently do not work.
gem5 Simulator System.  http://gem5.org
gem5 is copyrighted software; use the --copyright option for details.

gem5 version 20.1.0.5
gem5 compiled Jul 12 2024 12:42:38
gem5 started Aug  1 2024 18:22:14
gem5 executing on a07dda8b130c, pid 250950
command line: /home/user/PrIDE/performance/gem5/build/X86/gem5.opt --outdir=/home/user/PrIDE/performance/gem5/stats/pride_multiprogram_16GBmem_250Mn.SPEC2017.C4/RFM5.BR2.4C/mix6 /home/user/PrIDE/performance/gem5/configs/example/se_rq_spec_config_multicore.py --redirects /lib64=/home/utils/gcc-6.2.0/lib64 --benchmark=mix6 --benchmark_stdout=/home/user/PrIDE/performance/gem5/stats/pride_multiprogram_16GBmem_250Mn.SPEC2017.C4/RFM5.BR2.4C/mix6/mix6.out --benchmark_stderr=/home/user/PrIDE/performance/gem5/stats/pride_multiprogram_16GBmem_250Mn.SPEC2017.C4/RFM5.BR2.4C/mix6/mix6.err --spec-version=2017 --rh_defense --rh_mitigation=RFM --rh_rfm_per_trefi=5 --rh_rfm_blast_radius=2 --rh_rfm_maxacts_per_trefi=79 --num-cpus=4 --mem-size=16GB --mem-type=DDR5_2400_32x4 --mem-ranks=1 --mem-channels=1 --checkpoint-dir=/home/user/PrIDE/performance/gem5/cpts-DDR5/multiprogram_16GBmem_25Bn.SPEC2017.C4/mix6-1-ref-x86 --checkpoint-restore=25000000000 --at-instruction --cpu-type DerivO3CPU --caches --l2cache --l1d_size=32kB --l1i_size=32kB --l2_size=256kB --l3_size=4MB --l1d_assoc=8 --l1i_assoc=8 --l2_assoc=16 --l3_assoc=16 --cpu-clock=3GHz --sys-clock=3GHz --maxinsts=250000000 --prog-interval=300Hz

info: Standard input is not a terminal, disabling listeners.
Benchmark- 0   nab
Selected benchmark
--> nab
CMD: ['/opt/spec2017/benchspec/CPU/544.nab_r/run/run_base_refrate_gem5_se-m64.0000/nab_r_base.gem5_se-m64', '1am0', '1122214447', '122']
CWD: /opt/spec2017/benchspec/CPU/544.nab_r/run/run_base_refrate_gem5_se-m64.0000/
Process stdout file: /home/user/PrIDE/performance/gem5/stats/pride_multiprogram_16GBmem_250Mn.SPEC2017.C4/RFM5.BR2.4C/mix6/mix6.out_0
Process stderr file: /home/user/PrIDE/performance/gem5/stats/pride_multiprogram_16GBmem_250Mn.SPEC2017.C4/RFM5.BR2.4C/mix6/mix6.err_0
Benchmark- 1   lbm
Selected benchmark
--> lbm
CMD: ['/opt/spec2017/benchspec/CPU/519.lbm_r/run/run_base_refrate_gem5_se-m64.0000/lbm_r_base.gem5_se-m64', '3000', 'reference.dat', '0', '0', '/opt/spec2017/benchspec/CPU/519.lbm_r/run/run_base_refrate_gem5_se-m64.0000/100_100_130_ldc.of']
CWD: /opt/spec2017/benchspec/CPU/519.lbm_r/run/run_base_refrate_gem5_se-m64.0000/
Process stdout file: /home/user/PrIDE/performance/gem5/stats/pride_multiprogram_16GBmem_250Mn.SPEC2017.C4/RFM5.BR2.4C/mix6/mix6.out_1
Process stderr file: /home/user/PrIDE/performance/gem5/stats/pride_multiprogram_16GBmem_250Mn.SPEC2017.C4/RFM5.BR2.4C/mix6/mix6.err_1
Benchmark- 2   imagick
Selected benchmark
--> imagick
CMD: ['/opt/spec2017/benchspec/CPU/538.imagick_r/run/run_base_refrate_gem5_se-m64.0000/imagick_r_base.gem5_se-m64', '-limit', 'disk', '0', '/opt/spec2017/benchspec/CPU/538.imagick_r/run/run_base_refrate_gem5_se-m64.0000/refrate_input.tga', '-edge', '41', '-resample', '181%', '-emboss', '31', '-colorspace', 'YUV', '-mean-shift', '19x19+15%', '-resize', '30%', '/opt/spec2017/benchspec/CPU/538.imagick_r/run/run_base_refrate_gem5_se-m64.0000/refrate_output.tga']
CWD: /opt/spec2017/benchspec/CPU/538.imagick_r/run/run_base_refrate_gem5_se-m64.0000/
Process stdout file: /home/user/PrIDE/performance/gem5/stats/pride_multiprogram_16GBmem_250Mn.SPEC2017.C4/RFM5.BR2.4C/mix6/mix6.out_2
Process stderr file: /home/user/PrIDE/performance/gem5/stats/pride_multiprogram_16GBmem_250Mn.SPEC2017.C4/RFM5.BR2.4C/mix6/mix6.err_2
Benchmark- 3   povray
Selected benchmark
--> povray
CMD: ['/opt/spec2017/benchspec/CPU/511.povray_r/run/run_base_refrate_gem5_se-m64.0000/povray_r_base.gem5_se-m64', '/opt/spec2017/benchspec/CPU/511.povray_r/run/run_base_refrate_gem5_se-m64.0000/SPEC-benchmark-ref.ini']
CWD: /opt/spec2017/benchspec/CPU/511.povray_r/run/run_base_refrate_gem5_se-m64.0000/
Process stdout file: /home/user/PrIDE/performance/gem5/stats/pride_multiprogram_16GBmem_250Mn.SPEC2017.C4/RFM5.BR2.4C/mix6/mix6.out_3
Process stderr file: /home/user/PrIDE/performance/gem5/stats/pride_multiprogram_16GBmem_250Mn.SPEC2017.C4/RFM5.BR2.4C/mix6/mix6.err_3
Workload-0: 
['/opt/spec2017/benchspec/CPU/544.nab_r/run/run_base_refrate_gem5_se-m64.0000/nab_r_base.gem5_se-m64', '1am0', '1122214447', '122']
Workload-1: 
['/opt/spec2017/benchspec/CPU/519.lbm_r/run/run_base_refrate_gem5_se-m64.0000/lbm_r_base.gem5_se-m64', '3000', 'reference.dat', '0', '0', '/opt/spec2017/benchspec/CPU/519.lbm_r/run/run_base_refrate_gem5_se-m64.0000/100_100_130_ldc.of']
Workload-2: 
['/opt/spec2017/benchspec/CPU/538.imagick_r/run/run_base_refrate_gem5_se-m64.0000/imagick_r_base.gem5_se-m64', '-limit', 'disk', '0', '/opt/spec2017/benchspec/CPU/538.imagick_r/run/run_base_refrate_gem5_se-m64.0000/refrate_input.tga', '-edge', '41', '-resample', '181%', '-emboss', '31', '-colorspace', 'YUV', '-mean-shift', '19x19+15%', '-resize', '30%', '/opt/spec2017/benchspec/CPU/538.imagick_r/run/run_base_refrate_gem5_se-m64.0000/refrate_output.tga']
Workload-3: 
['/opt/spec2017/benchspec/CPU/511.povray_r/run/run_base_refrate_gem5_se-m64.0000/povray_r_base.gem5_se-m64', '/opt/spec2017/benchspec/CPU/511.povray_r/run/run_base_refrate_gem5_se-m64.0000/SPEC-benchmark-ref.ini']
defense_enable:  True  detector:  MG  mitigation:  RFM  threshold:  800
mg_entries:  1700
rfm_maxacts_per_trefi:  79 rfm_per_trefi:  5 rfm_blast_radius:  2
Switch at curTick count:10000
warn: membus.master is deprecated. `master` is now called `mem_side_ports`
warn: No dot file generated. Please install pydot to generate the dot file and pdf.
info: Entering event queue @ 13719052596285.  Starting simulation...
info: Entering event queue @ 13719052606285.  Starting simulation...
warn: PowerState: Already in the requested power state, request ignored
Switched CPUS @ tick 13719052606285
switching cpus
**** REAL SIMULATION ****
info: Entering event queue @ 13719052607274.  Starting simulation...
13722385929618: Event_285: system.switch_cpus3 progress event, total committed:44294140, progress insts committed: 44294140, IPC: 04.42498
13722385929618: Event_284: system.switch_cpus2 progress event, total committed:50154950, progress insts committed: 50154950, IPC: 05.01048
13722385929618: Event_283: system.switch_cpus1 progress event, total committed:9849653, progress insts committed: 9849653, IPC: 00.98398
13722385929618: Event_282: system.switch_cpus0 progress event, total committed:34078209, progress insts committed: 34078209, IPC: 03.40441
13725719262951: Event_282: system.switch_cpus0 progress event, total committed:68810541, progress insts committed: 34732332, IPC: 03.46976
13725719262951: Event_283: system.switch_cpus1 progress event, total committed:16835408, progress insts committed: 6985755, IPC: 0.697877
13725719262951: Event_284: system.switch_cpus2 progress event, total committed:102167654, progress insts committed: 52012704, IPC: 05.19607
13725719262951: Event_285: system.switch_cpus3 progress event, total committed:89662853, progress insts committed: 45368713, IPC: 04.53233
13729052596284: Event_285: system.switch_cpus3 progress event, total committed:135150926, progress insts committed: 45488073, IPC: 04.54426
13729052596284: Event_284: system.switch_cpus2 progress event, total committed:154363547, progress insts committed: 52195893, IPC: 05.21437
13729052596284: Event_283: system.switch_cpus1 progress event, total committed:24259219, progress insts committed: 7423811, IPC: 0.741639
13729052596284: Event_282: system.switch_cpus0 progress event, total committed:105732068, progress insts committed: 36921527, IPC: 03.68846
warn: MOVNTDQ: Ignoring non-temporal hint, modeling as cacheable!
13732385929617: Event_282: system.switch_cpus0 progress event, total committed:142516175, progress insts committed: 36784107, IPC: 03.67473
13732385929617: Event_283: system.switch_cpus1 progress event, total committed:32330454, progress insts committed: 8071235, IPC: 0.806316
13732385929617: Event_284: system.switch_cpus2 progress event, total committed:163380385, progress insts committed: 9016838, IPC: 0.900782
13732385929617: Event_285: system.switch_cpus3 progress event, total committed:180807018, progress insts committed: 45656092, IPC: 04.56104
13735719262950: Event_285: system.switch_cpus3 progress event, total committed:225793311, progress insts committed: 44986293, IPC: 04.49413
13735719262950: Event_284: system.switch_cpus2 progress event, total committed:184067328, progress insts committed: 20686943, IPC: 02.06663
13735719262950: Event_283: system.switch_cpus1 progress event, total committed:39199144, progress insts committed: 6868690, IPC: 0.686182
13735719262950: Event_282: system.switch_cpus0 progress event, total committed:177223995, progress insts committed: 34707820, IPC: 03.46731
13739052596283: Event_282: system.switch_cpus0 progress event, total committed:212944942, progress insts committed: 35720947, IPC: 03.56852
13739052596283: Event_283: system.switch_cpus1 progress event, total committed:46993669, progress insts committed: 7794525, IPC: 0.778673
13739052596283: Event_284: system.switch_cpus2 progress event, total committed:236247922, progress insts committed: 52180594, IPC: 05.21284
13739052596283: Event_285: system.switch_cpus3 progress event, total committed:270697145, progress insts committed: 44903834, IPC: 04.48589
13742385929616: Event_285: system.switch_cpus3 progress event, total committed:315751888, progress insts committed: 45054743, IPC: 04.50097
13742385929616: Event_284: system.switch_cpus2 progress event, total committed:288686702, progress insts committed: 52438780, IPC: 05.23863
13742385929616: Event_283: system.switch_cpus1 progress event, total committed:55256360, progress insts committed: 8262691, IPC: 0.825443
13742385929616: Event_282: system.switch_cpus0 progress event, total committed:250757355, progress insts committed: 37812413, IPC: 03.77746
13745719262949: Event_282: system.switch_cpus0 progress event, total committed:287750063, progress insts committed: 36992708, IPC: 03.69557
13745719262949: Event_283: system.switch_cpus1 progress event, total committed:63332930, progress insts committed: 8076570, IPC: 0.806849
13745719262949: Event_284: system.switch_cpus2 progress event, total committed:341086372, progress insts committed: 52399670, IPC: 05.23473
13745719262949: Event_285: system.switch_cpus3 progress event, total committed:360876227, progress insts committed: 45124339, IPC: 04.50792
13749052596282: Event_285: system.switch_cpus3 progress event, total committed:405790814, progress insts committed: 44914587, IPC: 04.48697
13749052596282: Event_284: system.switch_cpus2 progress event, total committed:393450477, progress insts committed: 52364105, IPC: 05.23117
13749052596282: Event_283: system.switch_cpus1 progress event, total committed:72004530, progress insts committed: 8671600, IPC: 0.866293
13749052596282: Event_282: system.switch_cpus0 progress event, total committed:325276378, progress insts committed: 37526315, IPC: 03.74888
Exiting @ tick 13750940881413 because a thread reached the max instruction count
