
---------- Begin Simulation Statistics ----------
final_tick                               13750909120206                       # Number of ticks from beginning of simulation (restored from checkpoints and never reset)
host_inst_rate                                 143382                       # Simulator instruction rate (inst/s)
host_mem_usage                               17161672                       # Number of bytes of host memory used
host_op_rate                                   235592                       # Simulator op (including micro ops) rate (op/s)
host_seconds                                  5420.63                       # Real time elapsed on the host
host_tick_rate                                5876917                       # Simulator tick rate (ticks/s)
sim_freq                                 1000000000000                       # Frequency of simulated ticks
sim_insts                                   777218430                       # Number of instructions simulated
sim_ops                                    1277059050                       # Number of ops (including micro ops) simulated
sim_seconds                                  0.031857                       # Number of seconds simulated
sim_ticks                                 31856582196                       # Number of ticks simulated
system.cpu0.committedInsts                         20                       # Number of instructions committed
system.cpu0.committedOps                           22                       # Number of ops (including micro ops) committed
system.cpu0.idle_fraction                           0                       # Percentage of idle cycles
system.cpu0.l2bus.snoop_filter.hit_multi_requests            0                       # Number of requests hitting in the snoop filter with multiple (>1) holders of the requested data.
system.cpu0.l2bus.snoop_filter.hit_multi_snoops            0                       # Number of snoops hitting in the snoop filter with multiple (>1) holders of the requested data.
system.cpu0.l2bus.snoop_filter.hit_single_requests      1079889                       # Number of requests hitting in the snoop filter with a single holder of the requested data.
system.cpu0.l2bus.snoop_filter.hit_single_snoops          245                       # Number of snoops hitting in the snoop filter with a single holder of the requested data.
system.cpu0.l2bus.snoop_filter.tot_requests      2159291                       # Total number of requests made to the snoop filter.
system.cpu0.l2bus.snoop_filter.tot_snoops          245                       # Total number of snoops made to the snoop filter.
system.cpu0.mmucache.mmubus.snoop_filter.hit_multi_requests            0                       # Number of requests hitting in the snoop filter with multiple (>1) holders of the requested data.
system.cpu0.mmucache.mmubus.snoop_filter.hit_multi_snoops            0                       # Number of snoops hitting in the snoop filter with multiple (>1) holders of the requested data.
system.cpu0.mmucache.mmubus.snoop_filter.hit_single_requests            0                       # Number of requests hitting in the snoop filter with a single holder of the requested data.
system.cpu0.mmucache.mmubus.snoop_filter.hit_single_snoops            0                       # Number of snoops hitting in the snoop filter with a single holder of the requested data.
system.cpu0.mmucache.mmubus.snoop_filter.tot_requests            0                       # Total number of requests made to the snoop filter.
system.cpu0.mmucache.mmubus.snoop_filter.tot_snoops            0                       # Total number of snoops made to the snoop filter.
system.cpu0.not_idle_fraction                       1                       # Percentage of non-idle cycles
system.cpu0.numCycles                              31                       # number of cpu cycles simulated
system.cpu0.numWorkItemsCompleted                   0                       # number of work items this cpu completed
system.cpu0.numWorkItemsStarted                     0                       # number of work items this cpu started
system.cpu0.num_busy_cycles                        31                       # Number of busy cycles
system.cpu0.num_cc_register_writes                  6                       # number of times the CC registers were written
system.cpu0.num_conditional_control_insts            0                       # number of instructions that are conditional controls
system.cpu0.num_fp_alu_accesses                    15                       # Number of float alu accesses
system.cpu0.num_fp_insts                           15                       # number of float instructions
system.cpu0.num_fp_register_reads                  23                       # number of times the floating registers were read
system.cpu0.num_fp_register_writes                 13                       # number of times the floating registers were written
system.cpu0.num_func_calls                          0                       # number of times a function call or return occured
system.cpu0.num_idle_cycles                         0                       # Number of idle cycles
system.cpu0.num_int_alu_accesses                   15                       # Number of integer alu accesses
system.cpu0.num_int_insts                          15                       # number of integer instructions
system.cpu0.num_int_register_reads                 39                       # number of times the integer registers were read
system.cpu0.num_int_register_writes                 7                       # number of times the integer registers were written
system.cpu0.num_load_insts                          7                       # Number of load instructions
system.cpu0.num_mem_refs                            9                       # number of memory refs
system.cpu0.num_store_insts                         2                       # Number of store instructions
system.cpu0.num_vec_alu_accesses                    0                       # Number of vector alu accesses
system.cpu0.num_vec_insts                           0                       # number of vector instructions
system.cpu0.num_vec_register_reads                  0                       # number of times the vector registers were read
system.cpu0.num_vec_register_writes                 0                       # number of times the vector registers were written
system.cpu0.op_class::No_OpClass                    0      0.00%      0.00% # Class of executed instruction
system.cpu0.op_class::IntAlu                        6     27.27%     27.27% # Class of executed instruction
system.cpu0.op_class::IntMult                       0      0.00%     27.27% # Class of executed instruction
system.cpu0.op_class::IntDiv                        0      0.00%     27.27% # Class of executed instruction
system.cpu0.op_class::FloatAdd                      0      0.00%     27.27% # Class of executed instruction
system.cpu0.op_class::FloatCmp                      0      0.00%     27.27% # Class of executed instruction
system.cpu0.op_class::FloatCvt                      0      0.00%     27.27% # Class of executed instruction
system.cpu0.op_class::FloatMult                     0      0.00%     27.27% # Class of executed instruction
system.cpu0.op_class::FloatMultAcc                  0      0.00%     27.27% # Class of executed instruction
system.cpu0.op_class::FloatDiv                      0      0.00%     27.27% # Class of executed instruction
system.cpu0.op_class::FloatMisc                     0      0.00%     27.27% # Class of executed instruction
system.cpu0.op_class::FloatSqrt                     0      0.00%     27.27% # Class of executed instruction
system.cpu0.op_class::SimdAdd                       0      0.00%     27.27% # Class of executed instruction
system.cpu0.op_class::SimdAddAcc                    0      0.00%     27.27% # Class of executed instruction
system.cpu0.op_class::SimdAlu                       0      0.00%     27.27% # Class of executed instruction
system.cpu0.op_class::SimdCmp                       0      0.00%     27.27% # Class of executed instruction
system.cpu0.op_class::SimdCvt                       0      0.00%     27.27% # Class of executed instruction
system.cpu0.op_class::SimdMisc                      0      0.00%     27.27% # Class of executed instruction
system.cpu0.op_class::SimdMult                      0      0.00%     27.27% # Class of executed instruction
system.cpu0.op_class::SimdMultAcc                   0      0.00%     27.27% # Class of executed instruction
system.cpu0.op_class::SimdShift                     0      0.00%     27.27% # Class of executed instruction
system.cpu0.op_class::SimdShiftAcc                  0      0.00%     27.27% # Class of executed instruction
system.cpu0.op_class::SimdDiv                       0      0.00%     27.27% # Class of executed instruction
system.cpu0.op_class::SimdSqrt                      0      0.00%     27.27% # Class of executed instruction
system.cpu0.op_class::SimdFloatAdd                  4     18.18%     45.45% # Class of executed instruction
system.cpu0.op_class::SimdFloatAlu                  0      0.00%     45.45% # Class of executed instruction
system.cpu0.op_class::SimdFloatCmp                  0      0.00%     45.45% # Class of executed instruction
system.cpu0.op_class::SimdFloatCvt                  0      0.00%     45.45% # Class of executed instruction
system.cpu0.op_class::SimdFloatDiv                  0      0.00%     45.45% # Class of executed instruction
system.cpu0.op_class::SimdFloatMisc                 0      0.00%     45.45% # Class of executed instruction
system.cpu0.op_class::SimdFloatMult                 3     13.64%     59.09% # Class of executed instruction
system.cpu0.op_class::SimdFloatMultAcc              0      0.00%     59.09% # Class of executed instruction
system.cpu0.op_class::SimdFloatSqrt                 0      0.00%     59.09% # Class of executed instruction
system.cpu0.op_class::SimdReduceAdd                 0      0.00%     59.09% # Class of executed instruction
system.cpu0.op_class::SimdReduceAlu                 0      0.00%     59.09% # Class of executed instruction
system.cpu0.op_class::SimdReduceCmp                 0      0.00%     59.09% # Class of executed instruction
system.cpu0.op_class::SimdFloatReduceAdd            0      0.00%     59.09% # Class of executed instruction
system.cpu0.op_class::SimdFloatReduceCmp            0      0.00%     59.09% # Class of executed instruction
system.cpu0.op_class::SimdAes                       0      0.00%     59.09% # Class of executed instruction
system.cpu0.op_class::SimdAesMix                    0      0.00%     59.09% # Class of executed instruction
system.cpu0.op_class::SimdSha1Hash                  0      0.00%     59.09% # Class of executed instruction
system.cpu0.op_class::SimdSha1Hash2                 0      0.00%     59.09% # Class of executed instruction
system.cpu0.op_class::SimdSha256Hash                0      0.00%     59.09% # Class of executed instruction
system.cpu0.op_class::SimdSha256Hash2               0      0.00%     59.09% # Class of executed instruction
system.cpu0.op_class::SimdShaSigma2                 0      0.00%     59.09% # Class of executed instruction
system.cpu0.op_class::SimdShaSigma3                 0      0.00%     59.09% # Class of executed instruction
system.cpu0.op_class::SimdPredAlu                   0      0.00%     59.09% # Class of executed instruction
system.cpu0.op_class::MemRead                       1      4.55%     63.64% # Class of executed instruction
system.cpu0.op_class::MemWrite                      0      0.00%     63.64% # Class of executed instruction
system.cpu0.op_class::FloatMemRead                  6     27.27%     90.91% # Class of executed instruction
system.cpu0.op_class::FloatMemWrite                 2      9.09%    100.00% # Class of executed instruction
system.cpu0.op_class::IprAccess                     0      0.00%    100.00% # Class of executed instruction
system.cpu0.op_class::InstPrefetch                  0      0.00%    100.00% # Class of executed instruction
system.cpu0.op_class::total                        22                       # Class of executed instruction
system.cpu0.workload.numSyscalls                    0                       # Number of system calls
system.cpu1.committedInsts                         19                       # Number of instructions committed
system.cpu1.committedOps                           21                       # Number of ops (including micro ops) committed
system.cpu1.idle_fraction                           0                       # Percentage of idle cycles
system.cpu1.l2bus.snoop_filter.hit_multi_requests            0                       # Number of requests hitting in the snoop filter with multiple (>1) holders of the requested data.
system.cpu1.l2bus.snoop_filter.hit_multi_snoops            0                       # Number of snoops hitting in the snoop filter with multiple (>1) holders of the requested data.
system.cpu1.l2bus.snoop_filter.hit_single_requests      2461959                       # Number of requests hitting in the snoop filter with a single holder of the requested data.
system.cpu1.l2bus.snoop_filter.hit_single_snoops          211                       # Number of snoops hitting in the snoop filter with a single holder of the requested data.
system.cpu1.l2bus.snoop_filter.tot_requests      4924483                       # Total number of requests made to the snoop filter.
system.cpu1.l2bus.snoop_filter.tot_snoops          211                       # Total number of snoops made to the snoop filter.
system.cpu1.mmucache.mmubus.snoop_filter.hit_multi_requests            0                       # Number of requests hitting in the snoop filter with multiple (>1) holders of the requested data.
system.cpu1.mmucache.mmubus.snoop_filter.hit_multi_snoops            0                       # Number of snoops hitting in the snoop filter with multiple (>1) holders of the requested data.
system.cpu1.mmucache.mmubus.snoop_filter.hit_single_requests            0                       # Number of requests hitting in the snoop filter with a single holder of the requested data.
system.cpu1.mmucache.mmubus.snoop_filter.hit_single_snoops            0                       # Number of snoops hitting in the snoop filter with a single holder of the requested data.
system.cpu1.mmucache.mmubus.snoop_filter.tot_requests            0                       # Total number of requests made to the snoop filter.
system.cpu1.mmucache.mmubus.snoop_filter.tot_snoops            0                       # Total number of snoops made to the snoop filter.
system.cpu1.not_idle_fraction                       1                       # Percentage of non-idle cycles
system.cpu1.numCycles                              31                       # number of cpu cycles simulated
system.cpu1.numWorkItemsCompleted                   0                       # number of work items this cpu completed
system.cpu1.numWorkItemsStarted                     0                       # number of work items this cpu started
system.cpu1.num_busy_cycles                        31                       # Number of busy cycles
system.cpu1.num_conditional_control_insts            0                       # number of instructions that are conditional controls
system.cpu1.num_fp_alu_accesses                    20                       # Number of float alu accesses
system.cpu1.num_fp_insts                           20                       # number of float instructions
system.cpu1.num_fp_register_reads                  54                       # number of times the floating registers were read
system.cpu1.num_fp_register_writes                 20                       # number of times the floating registers were written
system.cpu1.num_func_calls                          0                       # number of times a function call or return occured
system.cpu1.num_idle_cycles                         0                       # Number of idle cycles
system.cpu1.num_int_alu_accesses                    2                       # Number of integer alu accesses
system.cpu1.num_int_insts                           2                       # number of integer instructions
system.cpu1.num_int_register_reads                  4                       # number of times the integer registers were read
system.cpu1.num_int_register_writes                 1                       # number of times the integer registers were written
system.cpu1.num_load_insts                          1                       # Number of load instructions
system.cpu1.num_mem_refs                            1                       # number of memory refs
system.cpu1.num_store_insts                         0                       # Number of store instructions
system.cpu1.num_vec_alu_accesses                    0                       # Number of vector alu accesses
system.cpu1.num_vec_insts                           0                       # number of vector instructions
system.cpu1.num_vec_register_reads                  0                       # number of times the vector registers were read
system.cpu1.num_vec_register_writes                 0                       # number of times the vector registers were written
system.cpu1.op_class::No_OpClass                    0      0.00%      0.00% # Class of executed instruction
system.cpu1.op_class::IntAlu                        4     19.05%     19.05% # Class of executed instruction
system.cpu1.op_class::IntMult                       0      0.00%     19.05% # Class of executed instruction
system.cpu1.op_class::IntDiv                        0      0.00%     19.05% # Class of executed instruction
system.cpu1.op_class::FloatAdd                      0      0.00%     19.05% # Class of executed instruction
system.cpu1.op_class::FloatCmp                      0      0.00%     19.05% # Class of executed instruction
system.cpu1.op_class::FloatCvt                      0      0.00%     19.05% # Class of executed instruction
system.cpu1.op_class::FloatMult                     0      0.00%     19.05% # Class of executed instruction
system.cpu1.op_class::FloatMultAcc                  0      0.00%     19.05% # Class of executed instruction
system.cpu1.op_class::FloatDiv                      0      0.00%     19.05% # Class of executed instruction
system.cpu1.op_class::FloatMisc                     0      0.00%     19.05% # Class of executed instruction
system.cpu1.op_class::FloatSqrt                     0      0.00%     19.05% # Class of executed instruction
system.cpu1.op_class::SimdAdd                       0      0.00%     19.05% # Class of executed instruction
system.cpu1.op_class::SimdAddAcc                    0      0.00%     19.05% # Class of executed instruction
system.cpu1.op_class::SimdAlu                       0      0.00%     19.05% # Class of executed instruction
system.cpu1.op_class::SimdCmp                       0      0.00%     19.05% # Class of executed instruction
system.cpu1.op_class::SimdCvt                       0      0.00%     19.05% # Class of executed instruction
system.cpu1.op_class::SimdMisc                      0      0.00%     19.05% # Class of executed instruction
system.cpu1.op_class::SimdMult                      0      0.00%     19.05% # Class of executed instruction
system.cpu1.op_class::SimdMultAcc                   0      0.00%     19.05% # Class of executed instruction
system.cpu1.op_class::SimdShift                     0      0.00%     19.05% # Class of executed instruction
system.cpu1.op_class::SimdShiftAcc                  0      0.00%     19.05% # Class of executed instruction
system.cpu1.op_class::SimdDiv                       0      0.00%     19.05% # Class of executed instruction
system.cpu1.op_class::SimdSqrt                      0      0.00%     19.05% # Class of executed instruction
system.cpu1.op_class::SimdFloatAdd                  7     33.33%     52.38% # Class of executed instruction
system.cpu1.op_class::SimdFloatAlu                  0      0.00%     52.38% # Class of executed instruction
system.cpu1.op_class::SimdFloatCmp                  0      0.00%     52.38% # Class of executed instruction
system.cpu1.op_class::SimdFloatCvt                  0      0.00%     52.38% # Class of executed instruction
system.cpu1.op_class::SimdFloatDiv                  0      0.00%     52.38% # Class of executed instruction
system.cpu1.op_class::SimdFloatMisc                 0      0.00%     52.38% # Class of executed instruction
system.cpu1.op_class::SimdFloatMult                 9     42.86%     95.24% # Class of executed instruction
system.cpu1.op_class::SimdFloatMultAcc              0      0.00%     95.24% # Class of executed instruction
system.cpu1.op_class::SimdFloatSqrt                 0      0.00%     95.24% # Class of executed instruction
system.cpu1.op_class::SimdReduceAdd                 0      0.00%     95.24% # Class of executed instruction
system.cpu1.op_class::SimdReduceAlu                 0      0.00%     95.24% # Class of executed instruction
system.cpu1.op_class::SimdReduceCmp                 0      0.00%     95.24% # Class of executed instruction
system.cpu1.op_class::SimdFloatReduceAdd            0      0.00%     95.24% # Class of executed instruction
system.cpu1.op_class::SimdFloatReduceCmp            0      0.00%     95.24% # Class of executed instruction
system.cpu1.op_class::SimdAes                       0      0.00%     95.24% # Class of executed instruction
system.cpu1.op_class::SimdAesMix                    0      0.00%     95.24% # Class of executed instruction
system.cpu1.op_class::SimdSha1Hash                  0      0.00%     95.24% # Class of executed instruction
system.cpu1.op_class::SimdSha1Hash2                 0      0.00%     95.24% # Class of executed instruction
system.cpu1.op_class::SimdSha256Hash                0      0.00%     95.24% # Class of executed instruction
system.cpu1.op_class::SimdSha256Hash2               0      0.00%     95.24% # Class of executed instruction
system.cpu1.op_class::SimdShaSigma2                 0      0.00%     95.24% # Class of executed instruction
system.cpu1.op_class::SimdShaSigma3                 0      0.00%     95.24% # Class of executed instruction
system.cpu1.op_class::SimdPredAlu                   0      0.00%     95.24% # Class of executed instruction
system.cpu1.op_class::MemRead                       0      0.00%     95.24% # Class of executed instruction
system.cpu1.op_class::MemWrite                      0      0.00%     95.24% # Class of executed instruction
system.cpu1.op_class::FloatMemRead                  1      4.76%    100.00% # Class of executed instruction
system.cpu1.op_class::FloatMemWrite                 0      0.00%    100.00% # Class of executed instruction
system.cpu1.op_class::IprAccess                     0      0.00%    100.00% # Class of executed instruction
system.cpu1.op_class::InstPrefetch                  0      0.00%    100.00% # Class of executed instruction
system.cpu1.op_class::total                        21                       # Class of executed instruction
system.cpu1.workload.numSyscalls                    0                       # Number of system calls
system.cpu2.Branches                                2                       # Number of branches fetched
system.cpu2.committedInsts                         14                       # Number of instructions committed
system.cpu2.committedOps                           24                       # Number of ops (including micro ops) committed
system.cpu2.idle_fraction                           0                       # Percentage of idle cycles
system.cpu2.l2bus.snoop_filter.hit_multi_requests            3                       # Number of requests hitting in the snoop filter with multiple (>1) holders of the requested data.
system.cpu2.l2bus.snoop_filter.hit_multi_snoops            0                       # Number of snoops hitting in the snoop filter with multiple (>1) holders of the requested data.
system.cpu2.l2bus.snoop_filter.hit_single_requests      2529397                       # Number of requests hitting in the snoop filter with a single holder of the requested data.
system.cpu2.l2bus.snoop_filter.hit_single_snoops          215                       # Number of snoops hitting in the snoop filter with a single holder of the requested data.
system.cpu2.l2bus.snoop_filter.tot_requests      5059499                       # Total number of requests made to the snoop filter.
system.cpu2.l2bus.snoop_filter.tot_snoops          215                       # Total number of snoops made to the snoop filter.
system.cpu2.mmucache.mmubus.snoop_filter.hit_multi_requests            0                       # Number of requests hitting in the snoop filter with multiple (>1) holders of the requested data.
system.cpu2.mmucache.mmubus.snoop_filter.hit_multi_snoops            0                       # Number of snoops hitting in the snoop filter with multiple (>1) holders of the requested data.
system.cpu2.mmucache.mmubus.snoop_filter.hit_single_requests            0                       # Number of requests hitting in the snoop filter with a single holder of the requested data.
system.cpu2.mmucache.mmubus.snoop_filter.hit_single_snoops            0                       # Number of snoops hitting in the snoop filter with a single holder of the requested data.
system.cpu2.mmucache.mmubus.snoop_filter.tot_requests            0                       # Total number of requests made to the snoop filter.
system.cpu2.mmucache.mmubus.snoop_filter.tot_snoops            0                       # Total number of snoops made to the snoop filter.
system.cpu2.not_idle_fraction                       1                       # Percentage of non-idle cycles
system.cpu2.numCycles                              30                       # number of cpu cycles simulated
system.cpu2.numWorkItemsCompleted                   0                       # number of work items this cpu completed
system.cpu2.numWorkItemsStarted                     0                       # number of work items this cpu started
system.cpu2.num_busy_cycles                        30                       # Number of busy cycles
system.cpu2.num_cc_register_reads                  12                       # number of times the CC registers were read
system.cpu2.num_cc_register_writes                  6                       # number of times the CC registers were written
system.cpu2.num_conditional_control_insts            2                       # number of instructions that are conditional controls
system.cpu2.num_fp_alu_accesses                     9                       # Number of float alu accesses
system.cpu2.num_fp_insts                            9                       # number of float instructions
system.cpu2.num_fp_register_reads                  17                       # number of times the floating registers were read
system.cpu2.num_fp_register_writes                  8                       # number of times the floating registers were written
system.cpu2.num_func_calls                          0                       # number of times a function call or return occured
system.cpu2.num_idle_cycles                         0                       # Number of idle cycles
system.cpu2.num_int_alu_accesses                   18                       # Number of integer alu accesses
system.cpu2.num_int_insts                          18                       # number of integer instructions
system.cpu2.num_int_register_reads                 32                       # number of times the integer registers were read
system.cpu2.num_int_register_writes                13                       # number of times the integer registers were written
system.cpu2.num_load_insts                          4                       # Number of load instructions
system.cpu2.num_mem_refs                            4                       # number of memory refs
system.cpu2.num_store_insts                         0                       # Number of store instructions
system.cpu2.num_vec_alu_accesses                    0                       # Number of vector alu accesses
system.cpu2.num_vec_insts                           0                       # number of vector instructions
system.cpu2.num_vec_register_reads                  0                       # number of times the vector registers were read
system.cpu2.num_vec_register_writes                 0                       # number of times the vector registers were written
system.cpu2.op_class::No_OpClass                    0      0.00%      0.00% # Class of executed instruction
system.cpu2.op_class::IntAlu                       12     50.00%     50.00% # Class of executed instruction
system.cpu2.op_class::IntMult                       0      0.00%     50.00% # Class of executed instruction
system.cpu2.op_class::IntDiv                        0      0.00%     50.00% # Class of executed instruction
system.cpu2.op_class::FloatAdd                      0      0.00%     50.00% # Class of executed instruction
system.cpu2.op_class::FloatCmp                      0      0.00%     50.00% # Class of executed instruction
system.cpu2.op_class::FloatCvt                      0      0.00%     50.00% # Class of executed instruction
system.cpu2.op_class::FloatMult                     0      0.00%     50.00% # Class of executed instruction
system.cpu2.op_class::FloatMultAcc                  0      0.00%     50.00% # Class of executed instruction
system.cpu2.op_class::FloatDiv                      0      0.00%     50.00% # Class of executed instruction
system.cpu2.op_class::FloatMisc                     0      0.00%     50.00% # Class of executed instruction
system.cpu2.op_class::FloatSqrt                     0      0.00%     50.00% # Class of executed instruction
system.cpu2.op_class::SimdAdd                       0      0.00%     50.00% # Class of executed instruction
system.cpu2.op_class::SimdAddAcc                    0      0.00%     50.00% # Class of executed instruction
system.cpu2.op_class::SimdAlu                       0      0.00%     50.00% # Class of executed instruction
system.cpu2.op_class::SimdCmp                       0      0.00%     50.00% # Class of executed instruction
system.cpu2.op_class::SimdCvt                       0      0.00%     50.00% # Class of executed instruction
system.cpu2.op_class::SimdMisc                      2      8.33%     58.33% # Class of executed instruction
system.cpu2.op_class::SimdMult                      0      0.00%     58.33% # Class of executed instruction
system.cpu2.op_class::SimdMultAcc                   0      0.00%     58.33% # Class of executed instruction
system.cpu2.op_class::SimdShift                     0      0.00%     58.33% # Class of executed instruction
system.cpu2.op_class::SimdShiftAcc                  0      0.00%     58.33% # Class of executed instruction
system.cpu2.op_class::SimdDiv                       0      0.00%     58.33% # Class of executed instruction
system.cpu2.op_class::SimdSqrt                      0      0.00%     58.33% # Class of executed instruction
system.cpu2.op_class::SimdFloatAdd                  1      4.17%     62.50% # Class of executed instruction
system.cpu2.op_class::SimdFloatAlu                  0      0.00%     62.50% # Class of executed instruction
system.cpu2.op_class::SimdFloatCmp                  0      0.00%     62.50% # Class of executed instruction
system.cpu2.op_class::SimdFloatCvt                  3     12.50%     75.00% # Class of executed instruction
system.cpu2.op_class::SimdFloatDiv                  0      0.00%     75.00% # Class of executed instruction
system.cpu2.op_class::SimdFloatMisc                 0      0.00%     75.00% # Class of executed instruction
system.cpu2.op_class::SimdFloatMult                 2      8.33%     83.33% # Class of executed instruction
system.cpu2.op_class::SimdFloatMultAcc              0      0.00%     83.33% # Class of executed instruction
system.cpu2.op_class::SimdFloatSqrt                 0      0.00%     83.33% # Class of executed instruction
system.cpu2.op_class::SimdReduceAdd                 0      0.00%     83.33% # Class of executed instruction
system.cpu2.op_class::SimdReduceAlu                 0      0.00%     83.33% # Class of executed instruction
system.cpu2.op_class::SimdReduceCmp                 0      0.00%     83.33% # Class of executed instruction
system.cpu2.op_class::SimdFloatReduceAdd            0      0.00%     83.33% # Class of executed instruction
system.cpu2.op_class::SimdFloatReduceCmp            0      0.00%     83.33% # Class of executed instruction
system.cpu2.op_class::SimdAes                       0      0.00%     83.33% # Class of executed instruction
system.cpu2.op_class::SimdAesMix                    0      0.00%     83.33% # Class of executed instruction
system.cpu2.op_class::SimdSha1Hash                  0      0.00%     83.33% # Class of executed instruction
system.cpu2.op_class::SimdSha1Hash2                 0      0.00%     83.33% # Class of executed instruction
system.cpu2.op_class::SimdSha256Hash                0      0.00%     83.33% # Class of executed instruction
system.cpu2.op_class::SimdSha256Hash2               0      0.00%     83.33% # Class of executed instruction
system.cpu2.op_class::SimdShaSigma2                 0      0.00%     83.33% # Class of executed instruction
system.cpu2.op_class::SimdShaSigma3                 0      0.00%     83.33% # Class of executed instruction
system.cpu2.op_class::SimdPredAlu                   0      0.00%     83.33% # Class of executed instruction
system.cpu2.op_class::MemRead                       3     12.50%     95.83% # Class of executed instruction
system.cpu2.op_class::MemWrite                      0      0.00%     95.83% # Class of executed instruction
system.cpu2.op_class::FloatMemRead                  1      4.17%    100.00% # Class of executed instruction
system.cpu2.op_class::FloatMemWrite                 0      0.00%    100.00% # Class of executed instruction
system.cpu2.op_class::IprAccess                     0      0.00%    100.00% # Class of executed instruction
system.cpu2.op_class::InstPrefetch                  0      0.00%    100.00% # Class of executed instruction
system.cpu2.op_class::total                        24                       # Class of executed instruction
system.cpu2.workload.numSyscalls                    0                       # Number of system calls
system.cpu3.Branches                                2                       # Number of branches fetched
system.cpu3.committedInsts                         15                       # Number of instructions committed
system.cpu3.committedOps                           28                       # Number of ops (including micro ops) committed
system.cpu3.idle_fraction                           0                       # Percentage of idle cycles
system.cpu3.l2bus.snoop_filter.hit_multi_requests         5170                       # Number of requests hitting in the snoop filter with multiple (>1) holders of the requested data.
system.cpu3.l2bus.snoop_filter.hit_multi_snoops            0                       # Number of snoops hitting in the snoop filter with multiple (>1) holders of the requested data.
system.cpu3.l2bus.snoop_filter.hit_single_requests      1658103                       # Number of requests hitting in the snoop filter with a single holder of the requested data.
system.cpu3.l2bus.snoop_filter.hit_single_snoops            0                       # Number of snoops hitting in the snoop filter with a single holder of the requested data.
system.cpu3.l2bus.snoop_filter.tot_requests      3317161                       # Total number of requests made to the snoop filter.
system.cpu3.l2bus.snoop_filter.tot_snoops            0                       # Total number of snoops made to the snoop filter.
system.cpu3.mmucache.mmubus.snoop_filter.hit_multi_requests            0                       # Number of requests hitting in the snoop filter with multiple (>1) holders of the requested data.
system.cpu3.mmucache.mmubus.snoop_filter.hit_multi_snoops            0                       # Number of snoops hitting in the snoop filter with multiple (>1) holders of the requested data.
system.cpu3.mmucache.mmubus.snoop_filter.hit_single_requests            0                       # Number of requests hitting in the snoop filter with a single holder of the requested data.
system.cpu3.mmucache.mmubus.snoop_filter.hit_single_snoops            0                       # Number of snoops hitting in the snoop filter with a single holder of the requested data.
system.cpu3.mmucache.mmubus.snoop_filter.tot_requests            0                       # Total number of requests made to the snoop filter.
system.cpu3.mmucache.mmubus.snoop_filter.tot_snoops            0                       # Total number of snoops made to the snoop filter.
system.cpu3.not_idle_fraction                       1                       # Percentage of non-idle cycles
system.cpu3.numCycles                              31                       # number of cpu cycles simulated
system.cpu3.numWorkItemsCompleted                   0                       # number of work items this cpu completed
system.cpu3.numWorkItemsStarted                     0                       # number of work items this cpu started
system.cpu3.num_busy_cycles                        31                       # Number of busy cycles
system.cpu3.num_cc_register_reads                   6                       # number of times the CC registers were read
system.cpu3.num_cc_register_writes                  4                       # number of times the CC registers were written
system.cpu3.num_conditional_control_insts            1                       # number of instructions that are conditional controls
system.cpu3.num_fp_alu_accesses                     0                       # Number of float alu accesses
system.cpu3.num_fp_insts                            0                       # number of float instructions
system.cpu3.num_fp_register_reads                   0                       # number of times the floating registers were read
system.cpu3.num_fp_register_writes                  0                       # number of times the floating registers were written
system.cpu3.num_func_calls                          1                       # number of times a function call or return occured
system.cpu3.num_idle_cycles                         0                       # Number of idle cycles
system.cpu3.num_int_alu_accesses                   28                       # Number of integer alu accesses
system.cpu3.num_int_insts                          28                       # number of integer instructions
system.cpu3.num_int_register_reads                 65                       # number of times the integer registers were read
system.cpu3.num_int_register_writes                21                       # number of times the integer registers were written
system.cpu3.num_load_insts                          4                       # Number of load instructions
system.cpu3.num_mem_refs                            9                       # number of memory refs
system.cpu3.num_store_insts                         5                       # Number of store instructions
system.cpu3.num_vec_alu_accesses                    0                       # Number of vector alu accesses
system.cpu3.num_vec_insts                           0                       # number of vector instructions
system.cpu3.num_vec_register_reads                  0                       # number of times the vector registers were read
system.cpu3.num_vec_register_writes                 0                       # number of times the vector registers were written
system.cpu3.op_class::No_OpClass                    0      0.00%      0.00% # Class of executed instruction
system.cpu3.op_class::IntAlu                       19     67.86%     67.86% # Class of executed instruction
system.cpu3.op_class::IntMult                       0      0.00%     67.86% # Class of executed instruction
system.cpu3.op_class::IntDiv                        0      0.00%     67.86% # Class of executed instruction
system.cpu3.op_class::FloatAdd                      0      0.00%     67.86% # Class of executed instruction
system.cpu3.op_class::FloatCmp                      0      0.00%     67.86% # Class of executed instruction
system.cpu3.op_class::FloatCvt                      0      0.00%     67.86% # Class of executed instruction
system.cpu3.op_class::FloatMult                     0      0.00%     67.86% # Class of executed instruction
system.cpu3.op_class::FloatMultAcc                  0      0.00%     67.86% # Class of executed instruction
system.cpu3.op_class::FloatDiv                      0      0.00%     67.86% # Class of executed instruction
system.cpu3.op_class::FloatMisc                     0      0.00%     67.86% # Class of executed instruction
system.cpu3.op_class::FloatSqrt                     0      0.00%     67.86% # Class of executed instruction
system.cpu3.op_class::SimdAdd                       0      0.00%     67.86% # Class of executed instruction
system.cpu3.op_class::SimdAddAcc                    0      0.00%     67.86% # Class of executed instruction
system.cpu3.op_class::SimdAlu                       0      0.00%     67.86% # Class of executed instruction
system.cpu3.op_class::SimdCmp                       0      0.00%     67.86% # Class of executed instruction
system.cpu3.op_class::SimdCvt                       0      0.00%     67.86% # Class of executed instruction
system.cpu3.op_class::SimdMisc                      0      0.00%     67.86% # Class of executed instruction
system.cpu3.op_class::SimdMult                      0      0.00%     67.86% # Class of executed instruction
system.cpu3.op_class::SimdMultAcc                   0      0.00%     67.86% # Class of executed instruction
system.cpu3.op_class::SimdShift                     0      0.00%     67.86% # Class of executed instruction
system.cpu3.op_class::SimdShiftAcc                  0      0.00%     67.86% # Class of executed instruction
system.cpu3.op_class::SimdDiv                       0      0.00%     67.86% # Class of executed instruction
system.cpu3.op_class::SimdSqrt                      0      0.00%     67.86% # Class of executed instruction
system.cpu3.op_class::SimdFloatAdd                  0      0.00%     67.86% # Class of executed instruction
system.cpu3.op_class::SimdFloatAlu                  0      0.00%     67.86% # Class of executed instruction
system.cpu3.op_class::SimdFloatCmp                  0      0.00%     67.86% # Class of executed instruction
system.cpu3.op_class::SimdFloatCvt                  0      0.00%     67.86% # Class of executed instruction
system.cpu3.op_class::SimdFloatDiv                  0      0.00%     67.86% # Class of executed instruction
system.cpu3.op_class::SimdFloatMisc                 0      0.00%     67.86% # Class of executed instruction
system.cpu3.op_class::SimdFloatMult                 0      0.00%     67.86% # Class of executed instruction
system.cpu3.op_class::SimdFloatMultAcc              0      0.00%     67.86% # Class of executed instruction
system.cpu3.op_class::SimdFloatSqrt                 0      0.00%     67.86% # Class of executed instruction
system.cpu3.op_class::SimdReduceAdd                 0      0.00%     67.86% # Class of executed instruction
system.cpu3.op_class::SimdReduceAlu                 0      0.00%     67.86% # Class of executed instruction
system.cpu3.op_class::SimdReduceCmp                 0      0.00%     67.86% # Class of executed instruction
system.cpu3.op_class::SimdFloatReduceAdd            0      0.00%     67.86% # Class of executed instruction
system.cpu3.op_class::SimdFloatReduceCmp            0      0.00%     67.86% # Class of executed instruction
system.cpu3.op_class::SimdAes                       0      0.00%     67.86% # Class of executed instruction
system.cpu3.op_class::SimdAesMix                    0      0.00%     67.86% # Class of executed instruction
system.cpu3.op_class::SimdSha1Hash                  0      0.00%     67.86% # Class of executed instruction
system.cpu3.op_class::SimdSha1Hash2                 0      0.00%     67.86% # Class of executed instruction
system.cpu3.op_class::SimdSha256Hash                0      0.00%     67.86% # Class of executed instruction
system.cpu3.op_class::SimdSha256Hash2               0      0.00%     67.86% # Class of executed instruction
system.cpu3.op_class::SimdShaSigma2                 0      0.00%     67.86% # Class of executed instruction
system.cpu3.op_class::SimdShaSigma3                 0      0.00%     67.86% # Class of executed instruction
system.cpu3.op_class::SimdPredAlu                   0      0.00%     67.86% # Class of executed instruction
system.cpu3.op_class::MemRead                       4     14.29%     82.14% # Class of executed instruction
system.cpu3.op_class::MemWrite                      5     17.86%    100.00% # Class of executed instruction
system.cpu3.op_class::FloatMemRead                  0      0.00%    100.00% # Class of executed instruction
system.cpu3.op_class::FloatMemWrite                 0      0.00%    100.00% # Class of executed instruction
system.cpu3.op_class::IprAccess                     0      0.00%    100.00% # Class of executed instruction
system.cpu3.op_class::InstPrefetch                  0      0.00%    100.00% # Class of executed instruction
system.cpu3.op_class::total                        28                       # Class of executed instruction
system.cpu3.workload.numSyscalls                    0                       # Number of system calls
system.l3bus.snoop_filter.hit_multi_requests            0                       # Number of requests hitting in the snoop filter with multiple (>1) holders of the requested data.
system.l3bus.snoop_filter.hit_multi_snoops            0                       # Number of snoops hitting in the snoop filter with multiple (>1) holders of the requested data.
system.l3bus.snoop_filter.hit_single_requests      1586384                       # Number of requests hitting in the snoop filter with a single holder of the requested data.
system.l3bus.snoop_filter.hit_single_snoops            0                       # Number of snoops hitting in the snoop filter with a single holder of the requested data.
system.l3bus.snoop_filter.tot_requests        3208649                       # Total number of requests made to the snoop filter.
system.l3bus.snoop_filter.tot_snoops                0                       # Total number of snoops made to the snoop filter.
system.membus.snoop_filter.hit_multi_requests            0                       # Number of requests hitting in the snoop filter with multiple (>1) holders of the requested data.
system.membus.snoop_filter.hit_multi_snoops            0                       # Number of snoops hitting in the snoop filter with multiple (>1) holders of the requested data.
system.membus.snoop_filter.hit_single_requests      1506056                       # Number of requests hitting in the snoop filter with a single holder of the requested data.
system.membus.snoop_filter.hit_single_snoops            0                       # Number of snoops hitting in the snoop filter with a single holder of the requested data.
system.membus.snoop_filter.tot_requests       3091777                       # Total number of requests made to the snoop filter.
system.membus.snoop_filter.tot_snoops               0                       # Total number of snoops made to the snoop filter.
system.switch_cpus0.cc_regfile_reads         92947834                       # number of cc regfile reads
system.switch_cpus0.cc_regfile_writes        65305811                       # number of cc regfile writes
system.switch_cpus0.committedInsts          218499217                       # Number of Instructions Simulated
system.switch_cpus0.committedOps            346573689                       # Number of Ops (including micro ops) Simulated
system.switch_cpus0.cpi                      0.437829                       # CPI: Cycles Per Instruction
system.switch_cpus0.cpi_total                0.437829                       # CPI: Total CPI of All Threads
system.switch_cpus0.fp_regfile_reads        257383357                       # number of floating regfile reads
system.switch_cpus0.fp_regfile_writes       141109240                       # number of floating regfile writes
system.switch_cpus0.idleCycles                  49489                       # Total number of cycles that the CPU has spent unscheduled due to idling
system.switch_cpus0.iew.branchMispredicts         5544                       # Number of branch mispredicts detected at execute
system.switch_cpus0.iew.exec_branches        21937817                       # Number of branches executed
system.switch_cpus0.iew.exec_nop                    0                       # number of nop insts executed
system.switch_cpus0.iew.exec_rate            3.623980                       # Inst execution rate
system.switch_cpus0.iew.exec_refs            96890440                       # number of memory reference insts executed
system.switch_cpus0.iew.exec_stores          24237787                       # Number of stores executed
system.switch_cpus0.iew.exec_swp                    0                       # number of swp insts executed
system.switch_cpus0.iew.iewBlockCycles       26158486                       # Number of cycles IEW is blocking
system.switch_cpus0.iew.iewDispLoadInsts     72667394                       # Number of dispatched load instructions
system.switch_cpus0.iew.iewDispNonSpecInsts            0                       # Number of dispatched non-speculative instructions
system.switch_cpus0.iew.iewDispSquashedInsts         2524                       # Number of squashed instructions skipped by dispatch
system.switch_cpus0.iew.iewDispStoreInsts     24246182                       # Number of dispatched store instructions
system.switch_cpus0.iew.iewDispatchedInsts    346764865                       # Number of instructions dispatched to IQ
system.switch_cpus0.iew.iewExecLoadInsts     72652653                       # Number of load instructions executed
system.switch_cpus0.iew.iewExecSquashedInsts        15837                       # Number of squashed instructions skipped in execute
system.switch_cpus0.iew.iewExecutedInsts    346689449                       # Number of executed instructions
system.switch_cpus0.iew.iewIQFullEvents         45263                       # Number of times the IQ has become full, causing a stall
system.switch_cpus0.iew.iewIdleCycles               0                       # Number of cycles IEW is idle
system.switch_cpus0.iew.iewLSQFullEvents       193378                       # Number of times the LSQ has become full, causing a stall
system.switch_cpus0.iew.iewSquashCycles          6558                       # Number of cycles IEW is squashing
system.switch_cpus0.iew.iewUnblockCycles       271018                       # Number of cycles IEW is unblocking
system.switch_cpus0.iew.memOrderViolationEvents         1754                       # Number of memory order violations
system.switch_cpus0.iew.predictedNotTakenIncorrect         2515                       # Number of branches that were predicted not taken incorrectly
system.switch_cpus0.iew.predictedTakenIncorrect         3029                       # Number of branches that were predicted taken incorrectly
system.switch_cpus0.iew.wb_consumers        460150832                       # num instructions consuming a value
system.switch_cpus0.iew.wb_count            346679760                       # cumulative count of insts written-back
system.switch_cpus0.iew.wb_fanout            0.585791                       # average fanout of values written-back
system.switch_cpus0.iew.wb_producers        269552433                       # num instructions producing a value
system.switch_cpus0.iew.wb_rate              3.623879                       # insts written-back per cycle
system.switch_cpus0.iew.wb_sent             346683833                       # cumulative count of insts sent to commit
system.switch_cpus0.int_regfile_reads       360207980                       # number of integer regfile reads
system.switch_cpus0.int_regfile_writes      155946467                       # number of integer regfile writes
system.switch_cpus0.ipc                      2.283995                       # IPC: Instructions Per Cycle
system.switch_cpus0.ipc_total                2.283995                       # IPC: Total IPC of All Threads
system.switch_cpus0.iq.FU_type_0::No_OpClass         4069      0.00%      0.00% # Type of FU issued
system.switch_cpus0.iq.FU_type_0::IntAlu    169177308     48.80%     48.80% # Type of FU issued
system.switch_cpus0.iq.FU_type_0::IntMult       583885      0.17%     48.97% # Type of FU issued
system.switch_cpus0.iq.FU_type_0::IntDiv            0      0.00%     48.97% # Type of FU issued
system.switch_cpus0.iq.FU_type_0::FloatAdd      8647130      2.49%     51.46% # Type of FU issued
system.switch_cpus0.iq.FU_type_0::FloatCmp            0      0.00%     51.46% # Type of FU issued
system.switch_cpus0.iq.FU_type_0::FloatCvt            0      0.00%     51.46% # Type of FU issued
system.switch_cpus0.iq.FU_type_0::FloatMult            0      0.00%     51.46% # Type of FU issued
system.switch_cpus0.iq.FU_type_0::FloatMultAcc            0      0.00%     51.46% # Type of FU issued
system.switch_cpus0.iq.FU_type_0::FloatDiv            0      0.00%     51.46% # Type of FU issued
system.switch_cpus0.iq.FU_type_0::FloatMisc            0      0.00%     51.46% # Type of FU issued
system.switch_cpus0.iq.FU_type_0::FloatSqrt            0      0.00%     51.46% # Type of FU issued
system.switch_cpus0.iq.FU_type_0::SimdAdd            0      0.00%     51.46% # Type of FU issued
system.switch_cpus0.iq.FU_type_0::SimdAddAcc            0      0.00%     51.46% # Type of FU issued
system.switch_cpus0.iq.FU_type_0::SimdAlu      5766294      1.66%     53.12% # Type of FU issued
system.switch_cpus0.iq.FU_type_0::SimdCmp            0      0.00%     53.12% # Type of FU issued
system.switch_cpus0.iq.FU_type_0::SimdCvt            0      0.00%     53.12% # Type of FU issued
system.switch_cpus0.iq.FU_type_0::SimdMisc      4036355      1.16%     54.29% # Type of FU issued
system.switch_cpus0.iq.FU_type_0::SimdMult            0      0.00%     54.29% # Type of FU issued
system.switch_cpus0.iq.FU_type_0::SimdMultAcc            0      0.00%     54.29% # Type of FU issued
system.switch_cpus0.iq.FU_type_0::SimdShift            0      0.00%     54.29% # Type of FU issued
system.switch_cpus0.iq.FU_type_0::SimdShiftAcc            0      0.00%     54.29% # Type of FU issued
system.switch_cpus0.iq.FU_type_0::SimdDiv            0      0.00%     54.29% # Type of FU issued
system.switch_cpus0.iq.FU_type_0::SimdSqrt            0      0.00%     54.29% # Type of FU issued
system.switch_cpus0.iq.FU_type_0::SimdFloatAdd     24182194      6.97%     61.26% # Type of FU issued
system.switch_cpus0.iq.FU_type_0::SimdFloatAlu            0      0.00%     61.26% # Type of FU issued
system.switch_cpus0.iq.FU_type_0::SimdFloatCmp            0      0.00%     61.26% # Type of FU issued
system.switch_cpus0.iq.FU_type_0::SimdFloatCvt      4032930      1.16%     62.42% # Type of FU issued
system.switch_cpus0.iq.FU_type_0::SimdFloatDiv      2878567      0.83%     63.26% # Type of FU issued
system.switch_cpus0.iq.FU_type_0::SimdFloatMisc            0      0.00%     63.26% # Type of FU issued
system.switch_cpus0.iq.FU_type_0::SimdFloatMult     29348700      8.47%     71.72% # Type of FU issued
system.switch_cpus0.iq.FU_type_0::SimdFloatMultAcc            0      0.00%     71.72% # Type of FU issued
system.switch_cpus0.iq.FU_type_0::SimdFloatSqrt      1149712      0.33%     72.05% # Type of FU issued
system.switch_cpus0.iq.FU_type_0::SimdReduceAdd            0      0.00%     72.05% # Type of FU issued
system.switch_cpus0.iq.FU_type_0::SimdReduceAlu            0      0.00%     72.05% # Type of FU issued
system.switch_cpus0.iq.FU_type_0::SimdReduceCmp            0      0.00%     72.05% # Type of FU issued
system.switch_cpus0.iq.FU_type_0::SimdFloatReduceAdd            0      0.00%     72.05% # Type of FU issued
system.switch_cpus0.iq.FU_type_0::SimdFloatReduceCmp            0      0.00%     72.05% # Type of FU issued
system.switch_cpus0.iq.FU_type_0::SimdAes            0      0.00%     72.05% # Type of FU issued
system.switch_cpus0.iq.FU_type_0::SimdAesMix            0      0.00%     72.05% # Type of FU issued
system.switch_cpus0.iq.FU_type_0::SimdSha1Hash            0      0.00%     72.05% # Type of FU issued
system.switch_cpus0.iq.FU_type_0::SimdSha1Hash2            0      0.00%     72.05% # Type of FU issued
system.switch_cpus0.iq.FU_type_0::SimdSha256Hash            0      0.00%     72.05% # Type of FU issued
system.switch_cpus0.iq.FU_type_0::SimdSha256Hash2            0      0.00%     72.05% # Type of FU issued
system.switch_cpus0.iq.FU_type_0::SimdShaSigma2            0      0.00%     72.05% # Type of FU issued
system.switch_cpus0.iq.FU_type_0::SimdShaSigma3            0      0.00%     72.05% # Type of FU issued
system.switch_cpus0.iq.FU_type_0::SimdPredAlu            0      0.00%     72.05% # Type of FU issued
system.switch_cpus0.iq.FU_type_0::MemRead     27710364      7.99%     80.04% # Type of FU issued
system.switch_cpus0.iq.FU_type_0::MemWrite     10400980      3.00%     83.04% # Type of FU issued
system.switch_cpus0.iq.FU_type_0::FloatMemRead     44949112     12.96%     96.01% # Type of FU issued
system.switch_cpus0.iq.FU_type_0::FloatMemWrite     13837689      3.99%    100.00% # Type of FU issued
system.switch_cpus0.iq.FU_type_0::IprAccess            0      0.00%    100.00% # Type of FU issued
system.switch_cpus0.iq.FU_type_0::InstPrefetch            0      0.00%    100.00% # Type of FU issued
system.switch_cpus0.iq.FU_type_0::total     346705289                       # Type of FU issued
system.switch_cpus0.iq.fp_alu_accesses      165686424                       # Number of floating point alu accesses
system.switch_cpus0.iq.fp_inst_queue_reads    328707339                       # Number of floating instruction queue reads
system.switch_cpus0.iq.fp_inst_queue_wakeup_accesses    163011094                       # Number of floating instruction queue wakeup accesses
system.switch_cpus0.iq.fp_inst_queue_writes    163088208                       # Number of floating instruction queue writes
system.switch_cpus0.iq.fu_busy_cnt            5263907                       # FU busy when requested
system.switch_cpus0.iq.fu_busy_rate          0.015183                       # FU busy rate (busy events/executed inst)
system.switch_cpus0.iq.fu_full::No_OpClass            0      0.00%      0.00% # attempts to use FU when none available
system.switch_cpus0.iq.fu_full::IntAlu        1165616     22.14%     22.14% # attempts to use FU when none available
system.switch_cpus0.iq.fu_full::IntMult             0      0.00%     22.14% # attempts to use FU when none available
system.switch_cpus0.iq.fu_full::IntDiv              0      0.00%     22.14% # attempts to use FU when none available
system.switch_cpus0.iq.fu_full::FloatAdd            0      0.00%     22.14% # attempts to use FU when none available
system.switch_cpus0.iq.fu_full::FloatCmp            0      0.00%     22.14% # attempts to use FU when none available
system.switch_cpus0.iq.fu_full::FloatCvt            0      0.00%     22.14% # attempts to use FU when none available
system.switch_cpus0.iq.fu_full::FloatMult            0      0.00%     22.14% # attempts to use FU when none available
system.switch_cpus0.iq.fu_full::FloatMultAcc            0      0.00%     22.14% # attempts to use FU when none available
system.switch_cpus0.iq.fu_full::FloatDiv            0      0.00%     22.14% # attempts to use FU when none available
system.switch_cpus0.iq.fu_full::FloatMisc            0      0.00%     22.14% # attempts to use FU when none available
system.switch_cpus0.iq.fu_full::FloatSqrt            0      0.00%     22.14% # attempts to use FU when none available
system.switch_cpus0.iq.fu_full::SimdAdd             0      0.00%     22.14% # attempts to use FU when none available
system.switch_cpus0.iq.fu_full::SimdAddAcc            0      0.00%     22.14% # attempts to use FU when none available
system.switch_cpus0.iq.fu_full::SimdAlu         34096      0.65%     22.79% # attempts to use FU when none available
system.switch_cpus0.iq.fu_full::SimdCmp             0      0.00%     22.79% # attempts to use FU when none available
system.switch_cpus0.iq.fu_full::SimdCvt             0      0.00%     22.79% # attempts to use FU when none available
system.switch_cpus0.iq.fu_full::SimdMisc            4      0.00%     22.79% # attempts to use FU when none available
system.switch_cpus0.iq.fu_full::SimdMult            0      0.00%     22.79% # attempts to use FU when none available
system.switch_cpus0.iq.fu_full::SimdMultAcc            0      0.00%     22.79% # attempts to use FU when none available
system.switch_cpus0.iq.fu_full::SimdShift            0      0.00%     22.79% # attempts to use FU when none available
system.switch_cpus0.iq.fu_full::SimdShiftAcc            0      0.00%     22.79% # attempts to use FU when none available
system.switch_cpus0.iq.fu_full::SimdDiv             0      0.00%     22.79% # attempts to use FU when none available
system.switch_cpus0.iq.fu_full::SimdSqrt            0      0.00%     22.79% # attempts to use FU when none available
system.switch_cpus0.iq.fu_full::SimdFloatAdd        35752      0.68%     23.47% # attempts to use FU when none available
system.switch_cpus0.iq.fu_full::SimdFloatAlu            0      0.00%     23.47% # attempts to use FU when none available
system.switch_cpus0.iq.fu_full::SimdFloatCmp            0      0.00%     23.47% # attempts to use FU when none available
system.switch_cpus0.iq.fu_full::SimdFloatCvt            0      0.00%     23.47% # attempts to use FU when none available
system.switch_cpus0.iq.fu_full::SimdFloatDiv            0      0.00%     23.47% # attempts to use FU when none available
system.switch_cpus0.iq.fu_full::SimdFloatMisc            0      0.00%     23.47% # attempts to use FU when none available
system.switch_cpus0.iq.fu_full::SimdFloatMult       175577      3.34%     26.81% # attempts to use FU when none available
system.switch_cpus0.iq.fu_full::SimdFloatMultAcc            0      0.00%     26.81% # attempts to use FU when none available
system.switch_cpus0.iq.fu_full::SimdFloatSqrt            0      0.00%     26.81% # attempts to use FU when none available
system.switch_cpus0.iq.fu_full::SimdReduceAdd            0      0.00%     26.81% # attempts to use FU when none available
system.switch_cpus0.iq.fu_full::SimdReduceAlu            0      0.00%     26.81% # attempts to use FU when none available
system.switch_cpus0.iq.fu_full::SimdReduceCmp            0      0.00%     26.81% # attempts to use FU when none available
system.switch_cpus0.iq.fu_full::SimdFloatReduceAdd            0      0.00%     26.81% # attempts to use FU when none available
system.switch_cpus0.iq.fu_full::SimdFloatReduceCmp            0      0.00%     26.81% # attempts to use FU when none available
system.switch_cpus0.iq.fu_full::SimdAes             0      0.00%     26.81% # attempts to use FU when none available
system.switch_cpus0.iq.fu_full::SimdAesMix            0      0.00%     26.81% # attempts to use FU when none available
system.switch_cpus0.iq.fu_full::SimdSha1Hash            0      0.00%     26.81% # attempts to use FU when none available
system.switch_cpus0.iq.fu_full::SimdSha1Hash2            0      0.00%     26.81% # attempts to use FU when none available
system.switch_cpus0.iq.fu_full::SimdSha256Hash            0      0.00%     26.81% # attempts to use FU when none available
system.switch_cpus0.iq.fu_full::SimdSha256Hash2            0      0.00%     26.81% # attempts to use FU when none available
system.switch_cpus0.iq.fu_full::SimdShaSigma2            0      0.00%     26.81% # attempts to use FU when none available
system.switch_cpus0.iq.fu_full::SimdShaSigma3            0      0.00%     26.81% # attempts to use FU when none available
system.switch_cpus0.iq.fu_full::SimdPredAlu            0      0.00%     26.81% # attempts to use FU when none available
system.switch_cpus0.iq.fu_full::MemRead       1405711     26.70%     53.51% # attempts to use FU when none available
system.switch_cpus0.iq.fu_full::MemWrite        26909      0.51%     54.02% # attempts to use FU when none available
system.switch_cpus0.iq.fu_full::FloatMemRead      2419352     45.96%     99.98% # attempts to use FU when none available
system.switch_cpus0.iq.fu_full::FloatMemWrite          890      0.02%    100.00% # attempts to use FU when none available
system.switch_cpus0.iq.fu_full::IprAccess            0      0.00%    100.00% # attempts to use FU when none available
system.switch_cpus0.iq.fu_full::InstPrefetch            0      0.00%    100.00% # attempts to use FU when none available
system.switch_cpus0.iq.int_alu_accesses     186278703                       # Number of integer alu accesses
system.switch_cpus0.iq.int_inst_queue_reads    465584912                       # Number of integer instruction queue reads
system.switch_cpus0.iq.int_inst_queue_wakeup_accesses    183668666                       # Number of integer instruction queue wakeup accesses
system.switch_cpus0.iq.int_inst_queue_writes    183869427                       # Number of integer instruction queue writes
system.switch_cpus0.iq.iqInstsAdded         346764865                       # Number of instructions added to the IQ (excludes non-spec)
system.switch_cpus0.iq.iqInstsIssued        346705289                       # Number of instructions issued
system.switch_cpus0.iq.iqSquashedInstsExamined       191021                       # Number of squashed instructions iterated over during squash; mainly for profiling
system.switch_cpus0.iq.iqSquashedInstsIssued         1877                       # Number of squashed instructions issued
system.switch_cpus0.iq.iqSquashedOperandsExamined       246227                       # Number of squashed operands that are examined and possibly removed from graph
system.switch_cpus0.iq.issued_per_cycle::samples     95615892                       # Number of insts issued each cycle
system.switch_cpus0.iq.issued_per_cycle::mean     3.626022                       # Number of insts issued each cycle
system.switch_cpus0.iq.issued_per_cycle::stdev     3.008356                       # Number of insts issued each cycle
system.switch_cpus0.iq.issued_per_cycle::underflows            0      0.00%      0.00% # Number of insts issued each cycle
system.switch_cpus0.iq.issued_per_cycle::0     29601899     30.96%     30.96% # Number of insts issued each cycle
system.switch_cpus0.iq.issued_per_cycle::1      2875805      3.01%     33.97% # Number of insts issued each cycle
system.switch_cpus0.iq.issued_per_cycle::2      5843908      6.11%     40.08% # Number of insts issued each cycle
system.switch_cpus0.iq.issued_per_cycle::3      7168960      7.50%     47.58% # Number of insts issued each cycle
system.switch_cpus0.iq.issued_per_cycle::4      8276243      8.66%     56.23% # Number of insts issued each cycle
system.switch_cpus0.iq.issued_per_cycle::5     10284158     10.76%     66.99% # Number of insts issued each cycle
system.switch_cpus0.iq.issued_per_cycle::6      9104382      9.52%     76.51% # Number of insts issued each cycle
system.switch_cpus0.iq.issued_per_cycle::7      8201562      8.58%     85.09% # Number of insts issued each cycle
system.switch_cpus0.iq.issued_per_cycle::8     14258975     14.91%    100.00% # Number of insts issued each cycle
system.switch_cpus0.iq.issued_per_cycle::overflows            0      0.00%    100.00% # Number of insts issued each cycle
system.switch_cpus0.iq.issued_per_cycle::min_value            0                       # Number of insts issued each cycle
system.switch_cpus0.iq.issued_per_cycle::max_value            8                       # Number of insts issued each cycle
system.switch_cpus0.iq.issued_per_cycle::total     95615892                       # Number of insts issued each cycle
system.switch_cpus0.iq.rate                  3.624146                       # Inst issue rate
system.switch_cpus0.iq.vec_alu_accesses             0                       # Number of vector alu accesses
system.switch_cpus0.iq.vec_inst_queue_reads            0                       # Number of vector instruction queue reads
system.switch_cpus0.iq.vec_inst_queue_wakeup_accesses            0                       # Number of vector instruction queue wakeup accesses
system.switch_cpus0.iq.vec_inst_queue_writes            0                       # Number of vector instruction queue writes
system.switch_cpus0.memDep0.conflictingLoads      4049693                       # Number of conflicting loads.
system.switch_cpus0.memDep0.conflictingStores       823947                       # Number of conflicting stores.
system.switch_cpus0.memDep0.insertedLoads     72667394                       # Number of loads inserted to the mem dependence unit.
system.switch_cpus0.memDep0.insertedStores     24246182                       # Number of stores inserted to the mem dependence unit.
system.switch_cpus0.misc_regfile_reads      155760335                       # number of misc regfile reads
system.switch_cpus0.misc_regfile_writes             1                       # number of misc regfile writes
system.switch_cpus0.numCycles                95665381                       # number of cpu cycles simulated
system.switch_cpus0.numWorkItemsCompleted            0                       # number of work items this cpu completed
system.switch_cpus0.numWorkItemsStarted             0                       # number of work items this cpu started
system.switch_cpus0.timesIdled                    115                       # Number of times that the entire CPU went into an idle state and unscheduled itself
system.switch_cpus1.cc_regfile_reads          2502843                       # number of cc regfile reads
system.switch_cpus1.cc_regfile_writes         1184239                       # number of cc regfile writes
system.switch_cpus1.committedInsts           69655804                       # Number of Instructions Simulated
system.switch_cpus1.committedOps             76575911                       # Number of Ops (including micro ops) Simulated
system.switch_cpus1.cpi                      1.373401                       # CPI: Cycles Per Instruction
system.switch_cpus1.cpi_total                1.373401                       # CPI: Total CPI of All Threads
system.switch_cpus1.fp_regfile_reads        127949252                       # number of floating regfile reads
system.switch_cpus1.fp_regfile_writes        57727214                       # number of floating regfile writes
system.switch_cpus1.idleCycles                   9735                       # Total number of cycles that the CPU has spent unscheduled due to idling
system.switch_cpus1.iew.branchMispredicts         1511                       # Number of branch mispredicts detected at execute
system.switch_cpus1.iew.exec_branches          441839                       # Number of branches executed
system.switch_cpus1.iew.exec_nop                    0                       # number of nop insts executed
system.switch_cpus1.iew.exec_rate            0.936136                       # Inst execution rate
system.switch_cpus1.iew.exec_refs            43024750                       # number of memory reference insts executed
system.switch_cpus1.iew.exec_stores           8568690                       # Number of stores executed
system.switch_cpus1.iew.exec_swp                    0                       # number of swp insts executed
system.switch_cpus1.iew.iewBlockCycles       16449375                       # Number of cycles IEW is blocking
system.switch_cpus1.iew.iewDispLoadInsts     21525073                       # Number of dispatched load instructions
system.switch_cpus1.iew.iewDispNonSpecInsts            0                       # Number of dispatched non-speculative instructions
system.switch_cpus1.iew.iewDispSquashedInsts           67                       # Number of squashed instructions skipped by dispatch
system.switch_cpus1.iew.iewDispStoreInsts      8579973                       # Number of dispatched store instructions
system.switch_cpus1.iew.iewDispatchedInsts     76642398                       # Number of instructions dispatched to IQ
system.switch_cpus1.iew.iewExecLoadInsts     34456060                       # Number of load instructions executed
system.switch_cpus1.iew.iewExecSquashedInsts         1445                       # Number of squashed instructions skipped in execute
system.switch_cpus1.iew.iewExecutedInsts     89555798                       # Number of executed instructions
system.switch_cpus1.iew.iewIQFullEvents        109061                       # Number of times the IQ has become full, causing a stall
system.switch_cpus1.iew.iewIdleCycles               0                       # Number of cycles IEW is idle
system.switch_cpus1.iew.iewLSQFullEvents     11956969                       # Number of times the LSQ has become full, causing a stall
system.switch_cpus1.iew.iewSquashCycles          1778                       # Number of cycles IEW is squashing
system.switch_cpus1.iew.iewUnblockCycles     12097584                       # Number of cycles IEW is unblocking
system.switch_cpus1.iew.memOrderViolationEvents          570                       # Number of memory order violations
system.switch_cpus1.iew.predictedNotTakenIncorrect         1496                       # Number of branches that were predicted not taken incorrectly
system.switch_cpus1.iew.predictedTakenIncorrect           15                       # Number of branches that were predicted taken incorrectly
system.switch_cpus1.iew.wb_consumers        105098916                       # num instructions consuming a value
system.switch_cpus1.iew.wb_count             76607835                       # cumulative count of insts written-back
system.switch_cpus1.iew.wb_fanout            0.536545                       # average fanout of values written-back
system.switch_cpus1.iew.wb_producers         56390307                       # num instructions producing a value
system.switch_cpus1.iew.wb_rate              0.800790                       # insts written-back per cycle
system.switch_cpus1.iew.wb_sent              76608603                       # cumulative count of insts sent to commit
system.switch_cpus1.int_regfile_reads        95830147                       # number of integer regfile reads
system.switch_cpus1.int_regfile_writes        9870953                       # number of integer regfile writes
system.switch_cpus1.ipc                      0.728119                       # IPC: Instructions Per Cycle
system.switch_cpus1.ipc_total                0.728119                       # IPC: Total IPC of All Threads
system.switch_cpus1.iq.FU_type_0::No_OpClass            0      0.00%      0.00% # Type of FU issued
system.switch_cpus1.iq.FU_type_0::IntAlu     11132571     12.43%     12.43% # Type of FU issued
system.switch_cpus1.iq.FU_type_0::IntMult            0      0.00%     12.43% # Type of FU issued
system.switch_cpus1.iq.FU_type_0::IntDiv            0      0.00%     12.43% # Type of FU issued
system.switch_cpus1.iq.FU_type_0::FloatAdd            0      0.00%     12.43% # Type of FU issued
system.switch_cpus1.iq.FU_type_0::FloatCmp            0      0.00%     12.43% # Type of FU issued
system.switch_cpus1.iq.FU_type_0::FloatCvt            0      0.00%     12.43% # Type of FU issued
system.switch_cpus1.iq.FU_type_0::FloatMult            0      0.00%     12.43% # Type of FU issued
system.switch_cpus1.iq.FU_type_0::FloatMultAcc            0      0.00%     12.43% # Type of FU issued
system.switch_cpus1.iq.FU_type_0::FloatDiv            0      0.00%     12.43% # Type of FU issued
system.switch_cpus1.iq.FU_type_0::FloatMisc            0      0.00%     12.43% # Type of FU issued
system.switch_cpus1.iq.FU_type_0::FloatSqrt            0      0.00%     12.43% # Type of FU issued
system.switch_cpus1.iq.FU_type_0::SimdAdd            0      0.00%     12.43% # Type of FU issued
system.switch_cpus1.iq.FU_type_0::SimdAddAcc            0      0.00%     12.43% # Type of FU issued
system.switch_cpus1.iq.FU_type_0::SimdAlu           14      0.00%     12.43% # Type of FU issued
system.switch_cpus1.iq.FU_type_0::SimdCmp            0      0.00%     12.43% # Type of FU issued
system.switch_cpus1.iq.FU_type_0::SimdCvt            0      0.00%     12.43% # Type of FU issued
system.switch_cpus1.iq.FU_type_0::SimdMisc            0      0.00%     12.43% # Type of FU issued
system.switch_cpus1.iq.FU_type_0::SimdMult            0      0.00%     12.43% # Type of FU issued
system.switch_cpus1.iq.FU_type_0::SimdMultAcc            0      0.00%     12.43% # Type of FU issued
system.switch_cpus1.iq.FU_type_0::SimdShift            0      0.00%     12.43% # Type of FU issued
system.switch_cpus1.iq.FU_type_0::SimdShiftAcc            0      0.00%     12.43% # Type of FU issued
system.switch_cpus1.iq.FU_type_0::SimdDiv            0      0.00%     12.43% # Type of FU issued
system.switch_cpus1.iq.FU_type_0::SimdSqrt            0      0.00%     12.43% # Type of FU issued
system.switch_cpus1.iq.FU_type_0::SimdFloatAdd     21784499     24.32%     36.76% # Type of FU issued
system.switch_cpus1.iq.FU_type_0::SimdFloatAlu            0      0.00%     36.76% # Type of FU issued
system.switch_cpus1.iq.FU_type_0::SimdFloatCmp            0      0.00%     36.76% # Type of FU issued
system.switch_cpus1.iq.FU_type_0::SimdFloatCvt            0      0.00%     36.76% # Type of FU issued
system.switch_cpus1.iq.FU_type_0::SimdFloatDiv       429912      0.48%     37.24% # Type of FU issued
system.switch_cpus1.iq.FU_type_0::SimdFloatMisc            0      0.00%     37.24% # Type of FU issued
system.switch_cpus1.iq.FU_type_0::SimdFloatMult     13184097     14.72%     51.96% # Type of FU issued
system.switch_cpus1.iq.FU_type_0::SimdFloatMultAcc            0      0.00%     51.96% # Type of FU issued
system.switch_cpus1.iq.FU_type_0::SimdFloatSqrt            0      0.00%     51.96% # Type of FU issued
system.switch_cpus1.iq.FU_type_0::SimdReduceAdd            0      0.00%     51.96% # Type of FU issued
system.switch_cpus1.iq.FU_type_0::SimdReduceAlu            0      0.00%     51.96% # Type of FU issued
system.switch_cpus1.iq.FU_type_0::SimdReduceCmp            0      0.00%     51.96% # Type of FU issued
system.switch_cpus1.iq.FU_type_0::SimdFloatReduceAdd            0      0.00%     51.96% # Type of FU issued
system.switch_cpus1.iq.FU_type_0::SimdFloatReduceCmp            0      0.00%     51.96% # Type of FU issued
system.switch_cpus1.iq.FU_type_0::SimdAes            0      0.00%     51.96% # Type of FU issued
system.switch_cpus1.iq.FU_type_0::SimdAesMix            0      0.00%     51.96% # Type of FU issued
system.switch_cpus1.iq.FU_type_0::SimdSha1Hash            0      0.00%     51.96% # Type of FU issued
system.switch_cpus1.iq.FU_type_0::SimdSha1Hash2            0      0.00%     51.96% # Type of FU issued
system.switch_cpus1.iq.FU_type_0::SimdSha256Hash            0      0.00%     51.96% # Type of FU issued
system.switch_cpus1.iq.FU_type_0::SimdSha256Hash2            0      0.00%     51.96% # Type of FU issued
system.switch_cpus1.iq.FU_type_0::SimdShaSigma2            0      0.00%     51.96% # Type of FU issued
system.switch_cpus1.iq.FU_type_0::SimdShaSigma3            0      0.00%     51.96% # Type of FU issued
[...]
system.switch_cpus3.commit.numCommittedDist::stdev     3.285052                       # Number of insts commited each cycle
system.switch_cpus3.commit.numCommittedDist::underflows            0      0.00%      0.00% # Number of insts commited each cycle
system.switch_cpus3.commit.numCommittedDist::0     15480212     17.44%     17.44% # Number of insts commited each cycle
system.switch_cpus3.commit.numCommittedDist::1      6980712      7.86%     25.30% # Number of insts commited each cycle
system.switch_cpus3.commit.numCommittedDist::2      4875271      5.49%     30.80% # Number of insts commited each cycle
system.switch_cpus3.commit.numCommittedDist::3      9728103     10.96%     41.76% # Number of insts commited each cycle
system.switch_cpus3.commit.numCommittedDist::4      3088688      3.48%     45.24% # Number of insts commited each cycle
system.switch_cpus3.commit.numCommittedDist::5      2169307      2.44%     47.68% # Number of insts commited each cycle
system.switch_cpus3.commit.numCommittedDist::6      3276898      3.69%     51.37% # Number of insts commited each cycle
system.switch_cpus3.commit.numCommittedDist::7      3304510      3.72%     55.10% # Number of insts commited each cycle
system.switch_cpus3.commit.numCommittedDist::8     39858005     44.90%    100.00% # Number of insts commited each cycle
system.switch_cpus3.commit.numCommittedDist::overflows            0      0.00%    100.00% # Number of insts commited each cycle
system.switch_cpus3.commit.numCommittedDist::min_value            0                       # Number of insts commited each cycle
system.switch_cpus3.commit.numCommittedDist::max_value            8                       # Number of insts commited each cycle
system.switch_cpus3.commit.numCommittedDist::total     88761706                       # Number of insts commited each cycle
system.switch_cpus3.commit.instsCommitted    239063341                       # Number of instructions committed
system.switch_cpus3.commit.opsCommitted     430773848                       # Number of ops (including micro ops) committed
system.switch_cpus3.commit.memRefs          126382215                       # Number of memory references committed
system.switch_cpus3.commit.loads             87769494                       # Number of loads committed
system.switch_cpus3.commit.amos                     0                       # Number of atomic instructions committed
system.switch_cpus3.commit.membars                  0                       # Number of memory barriers committed
system.switch_cpus3.commit.branches          42333625                       # Number of branches committed
system.switch_cpus3.commit.vector                   0                       # Number of committed Vector instructions.
system.switch_cpus3.commit.floating          89672490                       # Number of committed floating point instructions.
system.switch_cpus3.commit.integer          378436418                       # Number of committed integer instructions.
system.switch_cpus3.commit.functionCalls      6632739                       # Number of function calls committed.
system.switch_cpus3.commit.committedInstType_0::No_OpClass      2307567      0.54%      0.54% # Class of committed instruction
system.switch_cpus3.commit.committedInstType_0::IntAlu    256907150     59.64%     60.17% # Class of committed instruction
system.switch_cpus3.commit.committedInstType_0::IntMult       903044      0.21%     60.38% # Class of committed instruction
system.switch_cpus3.commit.committedInstType_0::IntDiv            0      0.00%     60.38% # Class of committed instruction
system.switch_cpus3.commit.committedInstType_0::FloatAdd       977544      0.23%     60.61% # Class of committed instruction
system.switch_cpus3.commit.committedInstType_0::FloatCmp            0      0.00%     60.61% # Class of committed instruction
system.switch_cpus3.commit.committedInstType_0::FloatCvt            0      0.00%     60.61% # Class of committed instruction
system.switch_cpus3.commit.committedInstType_0::FloatMult            0      0.00%     60.61% # Class of committed instruction
system.switch_cpus3.commit.committedInstType_0::FloatMultAcc            0      0.00%     60.61% # Class of committed instruction
system.switch_cpus3.commit.committedInstType_0::FloatDiv            0      0.00%     60.61% # Class of committed instruction
system.switch_cpus3.commit.committedInstType_0::FloatMisc            0      0.00%     60.61% # Class of committed instruction
system.switch_cpus3.commit.committedInstType_0::FloatSqrt            0      0.00%     60.61% # Class of committed instruction
system.switch_cpus3.commit.committedInstType_0::SimdAdd            0      0.00%     60.61% # Class of committed instruction
system.switch_cpus3.commit.committedInstType_0::SimdAddAcc            0      0.00%     60.61% # Class of committed instruction
system.switch_cpus3.commit.committedInstType_0::SimdAlu      2811474      0.65%     61.26% # Class of committed instruction
system.switch_cpus3.commit.committedInstType_0::SimdCmp            0      0.00%     61.26% # Class of committed instruction
system.switch_cpus3.commit.committedInstType_0::SimdCvt            0      0.00%     61.26% # Class of committed instruction
system.switch_cpus3.commit.committedInstType_0::SimdMisc        76900      0.02%     61.28% # Class of committed instruction
system.switch_cpus3.commit.committedInstType_0::SimdMult            0      0.00%     61.28% # Class of committed instruction
system.switch_cpus3.commit.committedInstType_0::SimdMultAcc            0      0.00%     61.28% # Class of committed instruction
system.switch_cpus3.commit.committedInstType_0::SimdShift            0      0.00%     61.28% # Class of committed instruction
system.switch_cpus3.commit.committedInstType_0::SimdShiftAcc            0      0.00%     61.28% # Class of committed instruction
system.switch_cpus3.commit.committedInstType_0::SimdDiv            0      0.00%     61.28% # Class of committed instruction
system.switch_cpus3.commit.committedInstType_0::SimdSqrt            0      0.00%     61.28% # Class of committed instruction
system.switch_cpus3.commit.committedInstType_0::SimdFloatAdd     16433298      3.81%     65.10% # Class of committed instruction
system.switch_cpus3.commit.committedInstType_0::SimdFloatAlu            0      0.00%     65.10% # Class of committed instruction
system.switch_cpus3.commit.committedInstType_0::SimdFloatCmp        58985      0.01%     65.11% # Class of committed instruction
system.switch_cpus3.commit.committedInstType_0::SimdFloatCvt      7097025      1.65%     66.76% # Class of committed instruction
system.switch_cpus3.commit.committedInstType_0::SimdFloatDiv       569607      0.13%     66.89% # Class of committed instruction
system.switch_cpus3.commit.committedInstType_0::SimdFloatMisc            0      0.00%     66.89% # Class of committed instruction
system.switch_cpus3.commit.committedInstType_0::SimdFloatMult     16218094      3.76%     70.65% # Class of committed instruction
system.switch_cpus3.commit.committedInstType_0::SimdFloatMultAcc            0      0.00%     70.65% # Class of committed instruction
system.switch_cpus3.commit.committedInstType_0::SimdFloatSqrt        30945      0.01%     70.66% # Class of committed instruction
system.switch_cpus3.commit.committedInstType_0::SimdReduceAdd            0      0.00%     70.66% # Class of committed instruction
system.switch_cpus3.commit.committedInstType_0::SimdReduceAlu            0      0.00%     70.66% # Class of committed instruction
system.switch_cpus3.commit.committedInstType_0::SimdReduceCmp            0      0.00%     70.66% # Class of committed instruction
system.switch_cpus3.commit.committedInstType_0::SimdFloatReduceAdd            0      0.00%     70.66% # Class of committed instruction
system.switch_cpus3.commit.committedInstType_0::SimdFloatReduceCmp            0      0.00%     70.66% # Class of committed instruction
system.switch_cpus3.commit.committedInstType_0::SimdAes            0      0.00%     70.66% # Class of committed instruction
system.switch_cpus3.commit.committedInstType_0::SimdAesMix            0      0.00%     70.66% # Class of committed instruction
system.switch_cpus3.commit.committedInstType_0::SimdSha1Hash            0      0.00%     70.66% # Class of committed instruction
system.switch_cpus3.commit.committedInstType_0::SimdSha1Hash2            0      0.00%     70.66% # Class of committed instruction
system.switch_cpus3.commit.committedInstType_0::SimdSha256Hash            0      0.00%     70.66% # Class of committed instruction
system.switch_cpus3.commit.committedInstType_0::SimdSha256Hash2            0      0.00%     70.66% # Class of committed instruction
system.switch_cpus3.commit.committedInstType_0::SimdShaSigma2            0      0.00%     70.66% # Class of committed instruction
system.switch_cpus3.commit.committedInstType_0::SimdShaSigma3            0      0.00%     70.66% # Class of committed instruction
system.switch_cpus3.commit.committedInstType_0::SimdPredAlu            0      0.00%     70.66% # Class of committed instruction
system.switch_cpus3.commit.committedInstType_0::MemRead     54176969     12.58%     83.24% # Class of committed instruction
system.switch_cpus3.commit.committedInstType_0::MemWrite     32631091      7.57%     90.81% # Class of committed instruction
system.switch_cpus3.commit.committedInstType_0::FloatMemRead     33592525      7.80%     98.61% # Class of committed instruction
system.switch_cpus3.commit.committedInstType_0::FloatMemWrite      5981630      1.39%    100.00% # Class of committed instruction
system.switch_cpus3.commit.committedInstType_0::IprAccess            0      0.00%    100.00% # Class of committed instruction
system.switch_cpus3.commit.committedInstType_0::InstPrefetch            0      0.00%    100.00% # Class of committed instruction
system.switch_cpus3.commit.committedInstType_0::total    430773848                       # Class of committed instruction
system.switch_cpus3.commit.commitEligibleSamples     39858005                       # number cycles where commit BW limit reached
system.switch_cpus3.decode.idleCycles         5698499                       # Number of cycles decode is idle
system.switch_cpus3.decode.blockedCycles     14680833                       # Number of cycles decode is blocked
system.switch_cpus3.decode.runCycles         68386114                       # Number of cycles decode is running
system.switch_cpus3.decode.unblockCycles      5828332                       # Number of cycles decode is unblocking
system.switch_cpus3.decode.squashCycles        956130                       # Number of cycles decode is squashing
system.switch_cpus3.decode.branchResolved     20429342                       # Number of times decode resolved a  branch
system.switch_cpus3.decode.branchMispred        59994                       # Number of times decode detected a branch misprediction
system.switch_cpus3.decode.decodedInsts     499789988                       # Number of instructions handled by decode
system.switch_cpus3.decode.squashedInsts       347024                       # Number of squashed instructions handled by decode
system.switch_cpus3.dtb.rdAccesses           94278175                       # TLB accesses on read requests
system.switch_cpus3.dtb.wrAccesses           40781939                       # TLB accesses on write requests
system.switch_cpus3.dtb.rdMisses               615649                       # TLB misses on read requests
system.switch_cpus3.dtb.wrMisses               104115                       # TLB misses on write requests
system.switch_cpus3.dtb.walker.power_state.pwrStateResidencyTicks::UNDEFINED 13750909120206                       # Cumulative time (in ticks) in various power states
system.switch_cpus3.fetch.icacheStallCycles       955277                       # Number of cycles fetch is stalled on an Icache miss
system.switch_cpus3.fetch.insts             282284416                       # Number of instructions fetch has processed
system.switch_cpus3.fetch.branches           50371079                       # Number of branches that fetch encountered
system.switch_cpus3.fetch.predictedBranches     31592869                       # Number of branches that fetch has predicted taken
system.switch_cpus3.fetch.cycles             93579021                       # Number of cycles fetch has run and was not squashing or blocked
system.switch_cpus3.fetch.squashCycles        2031224                       # Number of cycles fetch has spent squashing
system.switch_cpus3.fetch.cacheLines         43495146                       # Number of cache lines fetched
system.switch_cpus3.fetch.icacheSquashes          298                       # Number of outstanding Icache misses that were squashed
system.switch_cpus3.fetch.nisnDist::samples     95549910                       # Number of instructions fetched each cycle (Total)
system.switch_cpus3.fetch.nisnDist::mean     5.357436                       # Number of instructions fetched each cycle (Total)
system.switch_cpus3.fetch.nisnDist::stdev     2.948950                       # Number of instructions fetched each cycle (Total)
system.switch_cpus3.fetch.nisnDist::underflows            0      0.00%      0.00% # Number of instructions fetched each cycle (Total)
system.switch_cpus3.fetch.nisnDist::0        11264213     11.79%     11.79% # Number of instructions fetched each cycle (Total)
system.switch_cpus3.fetch.nisnDist::1         4017291      4.20%     15.99% # Number of instructions fetched each cycle (Total)
system.switch_cpus3.fetch.nisnDist::2         6326030      6.62%     22.61% # Number of instructions fetched each cycle (Total)
system.switch_cpus3.fetch.nisnDist::3         4141752      4.33%     26.95% # Number of instructions fetched each cycle (Total)
system.switch_cpus3.fetch.nisnDist::4        11542435     12.08%     39.03% # Number of instructions fetched each cycle (Total)
system.switch_cpus3.fetch.nisnDist::5         3120320      3.27%     42.29% # Number of instructions fetched each cycle (Total)
system.switch_cpus3.fetch.nisnDist::6         8152002      8.53%     50.83% # Number of instructions fetched each cycle (Total)
system.switch_cpus3.fetch.nisnDist::7         3762362      3.94%     54.76% # Number of instructions fetched each cycle (Total)
system.switch_cpus3.fetch.nisnDist::8        43223505     45.24%    100.00% # Number of instructions fetched each cycle (Total)
system.switch_cpus3.fetch.nisnDist::overflows            0      0.00%    100.00% # Number of instructions fetched each cycle (Total)
system.switch_cpus3.fetch.nisnDist::min_value            0                       # Number of instructions fetched each cycle (Total)
system.switch_cpus3.fetch.nisnDist::max_value            8                       # Number of instructions fetched each cycle (Total)
system.switch_cpus3.fetch.nisnDist::total     95549910                       # Number of instructions fetched each cycle (Total)
system.switch_cpus3.fetch.branchRate         0.526534                       # Number of branch fetches per cycle
system.switch_cpus3.fetch.rate               2.950748                       # Number of inst fetches per cycle
system.switch_cpus3.itb.rdAccesses                  0                       # TLB accesses on read requests
system.switch_cpus3.itb.wrAccesses           43495146                       # TLB accesses on write requests
system.switch_cpus3.itb.rdMisses                    0                       # TLB misses on read requests
system.switch_cpus3.itb.wrMisses                   57                       # TLB misses on write requests
system.switch_cpus3.itb.walker.power_state.pwrStateResidencyTicks::UNDEFINED 13750909120206                       # Cumulative time (in ticks) in various power states
system.switch_cpus3.lsq0.forwLoads           17555516                       # Number of loads that had data forwarded from stores
system.switch_cpus3.lsq0.squashedLoads       10885437                       # Number of loads squashed
system.switch_cpus3.lsq0.ignoredResponses         5606                       # Number of memory responses ignored because the instruction is squashed
system.switch_cpus3.lsq0.memOrderViolation        16571                       # Number of memory ordering violations
system.switch_cpus3.lsq0.squashedStores       4724910                       # Number of stores squashed
system.switch_cpus3.lsq0.rescheduledLoads        57790                       # Number of loads that were rescheduled
system.switch_cpus3.lsq0.blockedByCache             0                       # Number of times an access to memory failed due to the cache being blocked
system.switch_cpus3.power_state.pwrStateResidencyTicks::OFF  31856582196                       # Cumulative time (in ticks) in various power states
system.switch_cpus3.rename.squashCycles        956130                       # Number of cycles rename is squashing
system.switch_cpus3.rename.idleCycles         8560125                       # Number of cycles rename is idle
system.switch_cpus3.rename.blockCycles        6387875                       # Number of cycles rename is blocking
system.switch_cpus3.rename.serializeStallCycles            0                       # count of cycles rename stalledfor serializing inst
system.switch_cpus3.rename.runCycles         71264512                       # Number of cycles rename is running
system.switch_cpus3.rename.unblockCycles      8381265                       # Number of cycles rename is unblocking
system.switch_cpus3.rename.renamedInsts     493530258                       # Number of instructions processed by rename
system.switch_cpus3.rename.ROBFullEvents        36469                       # Number of times rename has blocked due to ROB full
system.switch_cpus3.rename.IQFullEvents       2253871                       # Number of times rename has blocked due to IQ full
system.switch_cpus3.rename.LQFullEvents       1760152                       # Number of times rename has blocked due to LQ full
system.switch_cpus3.rename.SQFullEvents       2929446                       # Number of times rename has blocked due to SQ full
system.switch_cpus3.rename.renamedOperands    499351782                       # Number of destination operands rename has renamed
system.switch_cpus3.rename.lookups         1300366572                       # Number of register rename lookups that rename has made
system.switch_cpus3.rename.intLookups       690429885                       # Number of integer rename lookups
system.switch_cpus3.rename.fpLookups        150983213                       # Number of floating rename lookups
system.switch_cpus3.rename.committedMaps    435292887                       # Number of HB maps that are committed
system.switch_cpus3.rename.undoneMaps        64058826                       # Number of HB maps that are undone due to squashing
system.switch_cpus3.rename.serializing              0                       # count of serializing insts renamed
system.switch_cpus3.rename.tempSerializing            0                       # count of temporary serializing insts renamed
system.switch_cpus3.rename.skidInsts         22022487                       # count of insts added to the skid buffer
system.switch_cpus3.rob.reads               530309574                       # The number of ROB reads
system.switch_cpus3.rob.writes              969601028                       # The number of ROB writes
system.switch_cpus3.thread0.numInsts        239063341                       # Number of Instructions committed
system.switch_cpus3.thread0.numOps          430773848                       # Number of Ops committed
system.switch_cpus3.thread0.numMemRefs              0                       # Number of Memory References
system.voltage_domain.voltage                       1                       # Voltage in Volts

---------- End Simulation Statistics   ----------
