
---------- Begin Simulation Statistics ----------
final_tick                               16948480463424                       # Number of ticks from beginning of simulation (restored from checkpoints and never reset)
host_inst_rate                                  72433                       # Simulator instruction rate (inst/s)
host_mem_usage                               17039848                       # Number of bytes of host memory used
host_op_rate                                   124763                       # Simulator op (including micro ops) rate (op/s)
host_seconds                                 13780.03                       # Real time elapsed on the host
host_tick_rate                                9675564                       # Simulator tick rate (ticks/s)
sim_freq                                 1000000000000                       # Frequency of simulated ticks
sim_insts                                   998131801                       # Number of instructions simulated
sim_ops                                    1719232189                       # Number of ops (including micro ops) simulated
sim_seconds                                  0.133330                       # Number of seconds simulated
sim_ticks                                133329595275                       # Number of ticks simulated
system.cpu0.Branches                                2                       # Number of branches fetched
system.cpu0.committedInsts                         19                       # Number of instructions committed
system.cpu0.committedOps                           25                       # Number of ops (including micro ops) committed
system.cpu0.idle_fraction                           0                       # Percentage of idle cycles
system.cpu0.l2bus.snoop_filter.hit_multi_requests          440                       # Number of requests hitting in the snoop filter with multiple (>1) holders of the requested data.
system.cpu0.l2bus.snoop_filter.hit_multi_snoops          124                       # Number of snoops hitting in the snoop filter with multiple (>1) holders of the requested data.
system.cpu0.l2bus.snoop_filter.hit_single_requests      8442898                       # Number of requests hitting in the snoop filter with a single holder of the requested data.
system.cpu0.l2bus.snoop_filter.hit_single_snoops         2584                       # Number of snoops hitting in the snoop filter with a single holder of the requested data.
system.cpu0.l2bus.snoop_filter.tot_requests     16828124                       # Total number of requests made to the snoop filter.
system.cpu0.l2bus.snoop_filter.tot_snoops         2708                       # Total number of snoops made to the snoop filter.
system.cpu0.mmucache.mmubus.snoop_filter.hit_multi_requests            0                       # Number of requests hitting in the snoop filter with multiple (>1) holders of the requested data.
system.cpu0.mmucache.mmubus.snoop_filter.hit_multi_snoops            0                       # Number of snoops hitting in the snoop filter with multiple (>1) holders of the requested data.
system.cpu0.mmucache.mmubus.snoop_filter.hit_single_requests            0                       # Number of requests hitting in the snoop filter with a single holder of the requested data.
system.cpu0.mmucache.mmubus.snoop_filter.hit_single_snoops            0                       # Number of snoops hitting in the snoop filter with a single holder of the requested data.
system.cpu0.mmucache.mmubus.snoop_filter.tot_requests            0                       # Total number of requests made to the snoop filter.
system.cpu0.mmucache.mmubus.snoop_filter.tot_snoops            0                       # Total number of snoops made to the snoop filter.
system.cpu0.not_idle_fraction                       1                       # Percentage of non-idle cycles
system.cpu0.numCycles                              30                       # number of cpu cycles simulated
system.cpu0.numWorkItemsCompleted                   0                       # number of work items this cpu completed
system.cpu0.numWorkItemsStarted                     0                       # number of work items this cpu started
system.cpu0.num_busy_cycles                        30                       # Number of busy cycles
system.cpu0.num_cc_register_reads                  13                       # number of times the CC registers were read
system.cpu0.num_cc_register_writes                 12                       # number of times the CC registers were written
system.cpu0.num_conditional_control_insts            2                       # number of instructions that are conditional controls
system.cpu0.num_fp_alu_accesses                     0                       # Number of float alu accesses
system.cpu0.num_fp_insts                            0                       # number of float instructions
system.cpu0.num_fp_register_reads                   0                       # number of times the floating registers were read
system.cpu0.num_fp_register_writes                  0                       # number of times the floating registers were written
system.cpu0.num_func_calls                          0                       # number of times a function call or return occured
system.cpu0.num_idle_cycles                         0                       # Number of idle cycles
system.cpu0.num_int_alu_accesses                   25                       # Number of integer alu accesses
system.cpu0.num_int_insts                          25                       # number of integer instructions
system.cpu0.num_int_register_reads                 59                       # number of times the integer registers were read
system.cpu0.num_int_register_writes                20                       # number of times the integer registers were written
system.cpu0.num_load_insts                          7                       # Number of load instructions
system.cpu0.num_mem_refs                           10                       # number of memory refs
system.cpu0.num_store_insts                         3                       # Number of store instructions
system.cpu0.num_vec_alu_accesses                    0                       # Number of vector alu accesses
system.cpu0.num_vec_insts                           0                       # number of vector instructions
system.cpu0.num_vec_register_reads                  0                       # number of times the vector registers were read
system.cpu0.num_vec_register_writes                 0                       # number of times the vector registers were written
system.cpu0.op_class::No_OpClass                    0      0.00%      0.00% # Class of executed instruction
system.cpu0.op_class::IntAlu                       15     60.00%     60.00% # Class of executed instruction
system.cpu0.op_class::IntMult                       0      0.00%     60.00% # Class of executed instruction
system.cpu0.op_class::IntDiv                        0      0.00%     60.00% # Class of executed instruction
system.cpu0.op_class::FloatAdd                      0      0.00%     60.00% # Class of executed instruction
system.cpu0.op_class::FloatCmp                      0      0.00%     60.00% # Class of executed instruction
system.cpu0.op_class::FloatCvt                      0      0.00%     60.00% # Class of executed instruction
system.cpu0.op_class::FloatMult                     0      0.00%     60.00% # Class of executed instruction
system.cpu0.op_class::FloatMultAcc                  0      0.00%     60.00% # Class of executed instruction
system.cpu0.op_class::FloatDiv                      0      0.00%     60.00% # Class of executed instruction
system.cpu0.op_class::FloatMisc                     0      0.00%     60.00% # Class of executed instruction
system.cpu0.op_class::FloatSqrt                     0      0.00%     60.00% # Class of executed instruction
system.cpu0.op_class::SimdAdd                       0      0.00%     60.00% # Class of executed instruction
system.cpu0.op_class::SimdAddAcc                    0      0.00%     60.00% # Class of executed instruction
system.cpu0.op_class::SimdAlu                       0      0.00%     60.00% # Class of executed instruction
system.cpu0.op_class::SimdCmp                       0      0.00%     60.00% # Class of executed instruction
system.cpu0.op_class::SimdCvt                       0      0.00%     60.00% # Class of executed instruction
system.cpu0.op_class::SimdMisc                      0      0.00%     60.00% # Class of executed instruction
system.cpu0.op_class::SimdMult                      0      0.00%     60.00% # Class of executed instruction
system.cpu0.op_class::SimdMultAcc                   0      0.00%     60.00% # Class of executed instruction
system.cpu0.op_class::SimdShift                     0      0.00%     60.00% # Class of executed instruction
system.cpu0.op_class::SimdShiftAcc                  0      0.00%     60.00% # Class of executed instruction
system.cpu0.op_class::SimdDiv                       0      0.00%     60.00% # Class of executed instruction
system.cpu0.op_class::SimdSqrt                      0      0.00%     60.00% # Class of executed instruction
system.cpu0.op_class::SimdFloatAdd                  0      0.00%     60.00% # Class of executed instruction
system.cpu0.op_class::SimdFloatAlu                  0      0.00%     60.00% # Class of executed instruction
system.cpu0.op_class::SimdFloatCmp                  0      0.00%     60.00% # Class of executed instruction
system.cpu0.op_class::SimdFloatCvt                  0      0.00%     60.00% # Class of executed instruction
system.cpu0.op_class::SimdFloatDiv                  0      0.00%     60.00% # Class of executed instruction
system.cpu0.op_class::SimdFloatMisc                 0      0.00%     60.00% # Class of executed instruction
system.cpu0.op_class::SimdFloatMult                 0      0.00%     60.00% # Class of executed instruction
system.cpu0.op_class::SimdFloatMultAcc              0      0.00%     60.00% # Class of executed instruction
system.cpu0.op_class::SimdFloatSqrt                 0      0.00%     60.00% # Class of executed instruction
system.cpu0.op_class::SimdReduceAdd                 0      0.00%     60.00% # Class of executed instruction
system.cpu0.op_class::SimdReduceAlu                 0      0.00%     60.00% # Class of executed instruction
system.cpu0.op_class::SimdReduceCmp                 0      0.00%     60.00% # Class of executed instruction
system.cpu0.op_class::SimdFloatReduceAdd            0      0.00%     60.00% # Class of executed instruction
system.cpu0.op_class::SimdFloatReduceCmp            0      0.00%     60.00% # Class of executed instruction
system.cpu0.op_class::SimdAes                       0      0.00%     60.00% # Class of executed instruction
system.cpu0.op_class::SimdAesMix                    0      0.00%     60.00% # Class of executed instruction
system.cpu0.op_class::SimdSha1Hash                  0      0.00%     60.00% # Class of executed instruction
system.cpu0.op_class::SimdSha1Hash2                 0      0.00%     60.00% # Class of executed instruction
system.cpu0.op_class::SimdSha256Hash                0      0.00%     60.00% # Class of executed instruction
system.cpu0.op_class::SimdSha256Hash2               0      0.00%     60.00% # Class of executed instruction
system.cpu0.op_class::SimdShaSigma2                 0      0.00%     60.00% # Class of executed instruction
system.cpu0.op_class::SimdShaSigma3                 0      0.00%     60.00% # Class of executed instruction
system.cpu0.op_class::SimdPredAlu                   0      0.00%     60.00% # Class of executed instruction
system.cpu0.op_class::MemRead                       7     28.00%     88.00% # Class of executed instruction
system.cpu0.op_class::MemWrite                      3     12.00%    100.00% # Class of executed instruction
system.cpu0.op_class::FloatMemRead                  0      0.00%    100.00% # Class of executed instruction
system.cpu0.op_class::FloatMemWrite                 0      0.00%    100.00% # Class of executed instruction
system.cpu0.op_class::IprAccess                     0      0.00%    100.00% # Class of executed instruction
system.cpu0.op_class::InstPrefetch                  0      0.00%    100.00% # Class of executed instruction
system.cpu0.op_class::total                        25                       # Class of executed instruction
system.cpu0.workload.numSyscalls                    0                       # Number of system calls
system.cpu1.Branches                                2                       # Number of branches fetched
system.cpu1.committedInsts                         19                       # Number of instructions committed
system.cpu1.committedOps                           25                       # Number of ops (including micro ops) committed
system.cpu1.idle_fraction                           0                       # Percentage of idle cycles
system.cpu1.l2bus.snoop_filter.hit_multi_requests          407                       # Number of requests hitting in the snoop filter with multiple (>1) holders of the requested data.
system.cpu1.l2bus.snoop_filter.hit_multi_snoops           82                       # Number of snoops hitting in the snoop filter with multiple (>1) holders of the requested data.
system.cpu1.l2bus.snoop_filter.hit_single_requests      8434083                       # Number of requests hitting in the snoop filter with a single holder of the requested data.
system.cpu1.l2bus.snoop_filter.hit_single_snoops         3342                       # Number of snoops hitting in the snoop filter with a single holder of the requested data.
system.cpu1.l2bus.snoop_filter.tot_requests     16806508                       # Total number of requests made to the snoop filter.
system.cpu1.l2bus.snoop_filter.tot_snoops         3424                       # Total number of snoops made to the snoop filter.
system.cpu1.mmucache.mmubus.snoop_filter.hit_multi_requests            0                       # Number of requests hitting in the snoop filter with multiple (>1) holders of the requested data.
system.cpu1.mmucache.mmubus.snoop_filter.hit_multi_snoops            0                       # Number of snoops hitting in the snoop filter with multiple (>1) holders of the requested data.
system.cpu1.mmucache.mmubus.snoop_filter.hit_single_requests            0                       # Number of requests hitting in the snoop filter with a single holder of the requested data.
system.cpu1.mmucache.mmubus.snoop_filter.hit_single_snoops            0                       # Number of snoops hitting in the snoop filter with a single holder of the requested data.
system.cpu1.mmucache.mmubus.snoop_filter.tot_requests            0                       # Total number of requests made to the snoop filter.
system.cpu1.mmucache.mmubus.snoop_filter.tot_snoops            0                       # Total number of snoops made to the snoop filter.
system.cpu1.not_idle_fraction                       1                       # Percentage of non-idle cycles
system.cpu1.numCycles                              30                       # number of cpu cycles simulated
system.cpu1.numWorkItemsCompleted                   0                       # number of work items this cpu completed
system.cpu1.numWorkItemsStarted                     0                       # number of work items this cpu started
system.cpu1.num_busy_cycles                        30                       # Number of busy cycles
system.cpu1.num_cc_register_reads                  13                       # number of times the CC registers were read
system.cpu1.num_cc_register_writes                 12                       # number of times the CC registers were written
system.cpu1.num_conditional_control_insts            2                       # number of instructions that are conditional controls
system.cpu1.num_fp_alu_accesses                     0                       # Number of float alu accesses
system.cpu1.num_fp_insts                            0                       # number of float instructions
system.cpu1.num_fp_register_reads                   0                       # number of times the floating registers were read
system.cpu1.num_fp_register_writes                  0                       # number of times the floating registers were written
system.cpu1.num_func_calls                          0                       # number of times a function call or return occured
system.cpu1.num_idle_cycles                         0                       # Number of idle cycles
system.cpu1.num_int_alu_accesses                   25                       # Number of integer alu accesses
system.cpu1.num_int_insts                          25                       # number of integer instructions
system.cpu1.num_int_register_reads                 59                       # number of times the integer registers were read
system.cpu1.num_int_register_writes                20                       # number of times the integer registers were written
system.cpu1.num_load_insts                          7                       # Number of load instructions
system.cpu1.num_mem_refs                           10                       # number of memory refs
system.cpu1.num_store_insts                         3                       # Number of store instructions
system.cpu1.num_vec_alu_accesses                    0                       # Number of vector alu accesses
system.cpu1.num_vec_insts                           0                       # number of vector instructions
system.cpu1.num_vec_register_reads                  0                       # number of times the vector registers were read
system.cpu1.num_vec_register_writes                 0                       # number of times the vector registers were written
system.cpu1.op_class::No_OpClass                    0      0.00%      0.00% # Class of executed instruction
system.cpu1.op_class::IntAlu                       15     60.00%     60.00% # Class of executed instruction
system.cpu1.op_class::IntMult                       0      0.00%     60.00% # Class of executed instruction
system.cpu1.op_class::IntDiv                        0      0.00%     60.00% # Class of executed instruction
system.cpu1.op_class::FloatAdd                      0      0.00%     60.00% # Class of executed instruction
system.cpu1.op_class::FloatCmp                      0      0.00%     60.00% # Class of executed instruction
system.cpu1.op_class::FloatCvt                      0      0.00%     60.00% # Class of executed instruction
system.cpu1.op_class::FloatMult                     0      0.00%     60.00% # Class of executed instruction
system.cpu1.op_class::FloatMultAcc                  0      0.00%     60.00% # Class of executed instruction
system.cpu1.op_class::FloatDiv                      0      0.00%     60.00% # Class of executed instruction
system.cpu1.op_class::FloatMisc                     0      0.00%     60.00% # Class of executed instruction
system.cpu1.op_class::FloatSqrt                     0      0.00%     60.00% # Class of executed instruction
system.cpu1.op_class::SimdAdd                       0      0.00%     60.00% # Class of executed instruction
system.cpu1.op_class::SimdAddAcc                    0      0.00%     60.00% # Class of executed instruction
system.cpu1.op_class::SimdAlu                       0      0.00%     60.00% # Class of executed instruction
system.cpu1.op_class::SimdCmp                       0      0.00%     60.00% # Class of executed instruction
system.cpu1.op_class::SimdCvt                       0      0.00%     60.00% # Class of executed instruction
system.cpu1.op_class::SimdMisc                      0      0.00%     60.00% # Class of executed instruction
system.cpu1.op_class::SimdMult                      0      0.00%     60.00% # Class of executed instruction
system.cpu1.op_class::SimdMultAcc                   0      0.00%     60.00% # Class of executed instruction
system.cpu1.op_class::SimdShift                     0      0.00%     60.00% # Class of executed instruction
system.cpu1.op_class::SimdShiftAcc                  0      0.00%     60.00% # Class of executed instruction
system.cpu1.op_class::SimdDiv                       0      0.00%     60.00% # Class of executed instruction
system.cpu1.op_class::SimdSqrt                      0      0.00%     60.00% # Class of executed instruction
system.cpu1.op_class::SimdFloatAdd                  0      0.00%     60.00% # Class of executed instruction
system.cpu1.op_class::SimdFloatAlu                  0      0.00%     60.00% # Class of executed instruction
system.cpu1.op_class::SimdFloatCmp                  0      0.00%     60.00% # Class of executed instruction
system.cpu1.op_class::SimdFloatCvt                  0      0.00%     60.00% # Class of executed instruction
system.cpu1.op_class::SimdFloatDiv                  0      0.00%     60.00% # Class of executed instruction
system.cpu1.op_class::SimdFloatMisc                 0      0.00%     60.00% # Class of executed instruction
system.cpu1.op_class::SimdFloatMult                 0      0.00%     60.00% # Class of executed instruction
system.cpu1.op_class::SimdFloatMultAcc              0      0.00%     60.00% # Class of executed instruction
system.cpu1.op_class::SimdFloatSqrt                 0      0.00%     60.00% # Class of executed instruction
system.cpu1.op_class::SimdReduceAdd                 0      0.00%     60.00% # Class of executed instruction
system.cpu1.op_class::SimdReduceAlu                 0      0.00%     60.00% # Class of executed instruction
system.cpu1.op_class::SimdReduceCmp                 0      0.00%     60.00% # Class of executed instruction
system.cpu1.op_class::SimdFloatReduceAdd            0      0.00%     60.00% # Class of executed instruction
system.cpu1.op_class::SimdFloatReduceCmp            0      0.00%     60.00% # Class of executed instruction
system.cpu1.op_class::SimdAes                       0      0.00%     60.00% # Class of executed instruction
system.cpu1.op_class::SimdAesMix                    0      0.00%     60.00% # Class of executed instruction
system.cpu1.op_class::SimdSha1Hash                  0      0.00%     60.00% # Class of executed instruction
system.cpu1.op_class::SimdSha1Hash2                 0      0.00%     60.00% # Class of executed instruction
system.cpu1.op_class::SimdSha256Hash                0      0.00%     60.00% # Class of executed instruction
system.cpu1.op_class::SimdSha256Hash2               0      0.00%     60.00% # Class of executed instruction
system.cpu1.op_class::SimdShaSigma2                 0      0.00%     60.00% # Class of executed instruction
system.cpu1.op_class::SimdShaSigma3                 0      0.00%     60.00% # Class of executed instruction
system.cpu1.op_class::SimdPredAlu                   0      0.00%     60.00% # Class of executed instruction
system.cpu1.op_class::MemRead                       7     28.00%     88.00% # Class of executed instruction
system.cpu1.op_class::MemWrite                      3     12.00%    100.00% # Class of executed instruction
system.cpu1.op_class::FloatMemRead                  0      0.00%    100.00% # Class of executed instruction
system.cpu1.op_class::FloatMemWrite                 0      0.00%    100.00% # Class of executed instruction
system.cpu1.op_class::IprAccess                     0      0.00%    100.00% # Class of executed instruction
system.cpu1.op_class::InstPrefetch                  0      0.00%    100.00% # Class of executed instruction
system.cpu1.op_class::total                        25                       # Class of executed instruction
system.cpu1.workload.numSyscalls                    0                       # Number of system calls
system.cpu2.Branches                                2                       # Number of branches fetched
system.cpu2.committedInsts                         19                       # Number of instructions committed
system.cpu2.committedOps                           25                       # Number of ops (including micro ops) committed
system.cpu2.idle_fraction                           0                       # Percentage of idle cycles
system.cpu2.l2bus.snoop_filter.hit_multi_requests          441                       # Number of requests hitting in the snoop filter with multiple (>1) holders of the requested data.
system.cpu2.l2bus.snoop_filter.hit_multi_snoops          127                       # Number of snoops hitting in the snoop filter with multiple (>1) holders of the requested data.
system.cpu2.l2bus.snoop_filter.hit_single_requests      8467894                       # Number of requests hitting in the snoop filter with a single holder of the requested data.
system.cpu2.l2bus.snoop_filter.hit_single_snoops         2578                       # Number of snoops hitting in the snoop filter with a single holder of the requested data.
system.cpu2.l2bus.snoop_filter.tot_requests     16877873                       # Total number of requests made to the snoop filter.
system.cpu2.l2bus.snoop_filter.tot_snoops         2705                       # Total number of snoops made to the snoop filter.
system.cpu2.mmucache.mmubus.snoop_filter.hit_multi_requests            0                       # Number of requests hitting in the snoop filter with multiple (>1) holders of the requested data.
system.cpu2.mmucache.mmubus.snoop_filter.hit_multi_snoops            0                       # Number of snoops hitting in the snoop filter with multiple (>1) holders of the requested data.
system.cpu2.mmucache.mmubus.snoop_filter.hit_single_requests            0                       # Number of requests hitting in the snoop filter with a single holder of the requested data.
system.cpu2.mmucache.mmubus.snoop_filter.hit_single_snoops            0                       # Number of snoops hitting in the snoop filter with a single holder of the requested data.
system.cpu2.mmucache.mmubus.snoop_filter.tot_requests            0                       # Total number of requests made to the snoop filter.
system.cpu2.mmucache.mmubus.snoop_filter.tot_snoops            0                       # Total number of snoops made to the snoop filter.
system.cpu2.not_idle_fraction                       1                       # Percentage of non-idle cycles
system.cpu2.numCycles                              30                       # number of cpu cycles simulated
system.cpu2.numWorkItemsCompleted                   0                       # number of work items this cpu completed
system.cpu2.numWorkItemsStarted                     0                       # number of work items this cpu started
system.cpu2.num_busy_cycles                        30                       # Number of busy cycles
system.cpu2.num_cc_register_reads                  13                       # number of times the CC registers were read
system.cpu2.num_cc_register_writes                 12                       # number of times the CC registers were written
system.cpu2.num_conditional_control_insts            2                       # number of instructions that are conditional controls
system.cpu2.num_fp_alu_accesses                     0                       # Number of float alu accesses
system.cpu2.num_fp_insts                            0                       # number of float instructions
system.cpu2.num_fp_register_reads                   0                       # number of times the floating registers were read
system.cpu2.num_fp_register_writes                  0                       # number of times the floating registers were written
system.cpu2.num_func_calls                          0                       # number of times a function call or return occured
system.cpu2.num_idle_cycles                         0                       # Number of idle cycles
system.cpu2.num_int_alu_accesses                   25                       # Number of integer alu accesses
system.cpu2.num_int_insts                          25                       # number of integer instructions
system.cpu2.num_int_register_reads                 59                       # number of times the integer registers were read
system.cpu2.num_int_register_writes                20                       # number of times the integer registers were written
system.cpu2.num_load_insts                          7                       # Number of load instructions
system.cpu2.num_mem_refs                           10                       # number of memory refs
system.cpu2.num_store_insts                         3                       # Number of store instructions
system.cpu2.num_vec_alu_accesses                    0                       # Number of vector alu accesses
system.cpu2.num_vec_insts                           0                       # number of vector instructions
system.cpu2.num_vec_register_reads                  0                       # number of times the vector registers were read
system.cpu2.num_vec_register_writes                 0                       # number of times the vector registers were written
system.cpu2.op_class::No_OpClass                    0      0.00%      0.00% # Class of executed instruction
system.cpu2.op_class::IntAlu                       15     60.00%     60.00% # Class of executed instruction
system.cpu2.op_class::IntMult                       0      0.00%     60.00% # Class of executed instruction
system.cpu2.op_class::IntDiv                        0      0.00%     60.00% # Class of executed instruction
system.cpu2.op_class::FloatAdd                      0      0.00%     60.00% # Class of executed instruction
system.cpu2.op_class::FloatCmp                      0      0.00%     60.00% # Class of executed instruction
system.cpu2.op_class::FloatCvt                      0      0.00%     60.00% # Class of executed instruction
system.cpu2.op_class::FloatMult                     0      0.00%     60.00% # Class of executed instruction
system.cpu2.op_class::FloatMultAcc                  0      0.00%     60.00% # Class of executed instruction
system.cpu2.op_class::FloatDiv                      0      0.00%     60.00% # Class of executed instruction
system.cpu2.op_class::FloatMisc                     0      0.00%     60.00% # Class of executed instruction
system.cpu2.op_class::FloatSqrt                     0      0.00%     60.00% # Class of executed instruction
system.cpu2.op_class::SimdAdd                       0      0.00%     60.00% # Class of executed instruction
system.cpu2.op_class::SimdAddAcc                    0      0.00%     60.00% # Class of executed instruction
system.cpu2.op_class::SimdAlu                       0      0.00%     60.00% # Class of executed instruction
system.cpu2.op_class::SimdCmp                       0      0.00%     60.00% # Class of executed instruction
system.cpu2.op_class::SimdCvt                       0      0.00%     60.00% # Class of executed instruction
system.cpu2.op_class::SimdMisc                      0      0.00%     60.00% # Class of executed instruction
system.cpu2.op_class::SimdMult                      0      0.00%     60.00% # Class of executed instruction
system.cpu2.op_class::SimdMultAcc                   0      0.00%     60.00% # Class of executed instruction
system.cpu2.op_class::SimdShift                     0      0.00%     60.00% # Class of executed instruction
system.cpu2.op_class::SimdShiftAcc                  0      0.00%     60.00% # Class of executed instruction
system.cpu2.op_class::SimdDiv                       0      0.00%     60.00% # Class of executed instruction
system.cpu2.op_class::SimdSqrt                      0      0.00%     60.00% # Class of executed instruction
system.cpu2.op_class::SimdFloatAdd                  0      0.00%     60.00% # Class of executed instruction
system.cpu2.op_class::SimdFloatAlu                  0      0.00%     60.00% # Class of executed instruction
system.cpu2.op_class::SimdFloatCmp                  0      0.00%     60.00% # Class of executed instruction
system.cpu2.op_class::SimdFloatCvt                  0      0.00%     60.00% # Class of executed instruction
system.cpu2.op_class::SimdFloatDiv                  0      0.00%     60.00% # Class of executed instruction
system.cpu2.op_class::SimdFloatMisc                 0      0.00%     60.00% # Class of executed instruction
system.cpu2.op_class::SimdFloatMult                 0      0.00%     60.00% # Class of executed instruction
system.cpu2.op_class::SimdFloatMultAcc              0      0.00%     60.00% # Class of executed instruction
system.cpu2.op_class::SimdFloatSqrt                 0      0.00%     60.00% # Class of executed instruction
system.cpu2.op_class::SimdReduceAdd                 0      0.00%     60.00% # Class of executed instruction
system.cpu2.op_class::SimdReduceAlu                 0      0.00%     60.00% # Class of executed instruction
system.cpu2.op_class::SimdReduceCmp                 0      0.00%     60.00% # Class of executed instruction
system.cpu2.op_class::SimdFloatReduceAdd            0      0.00%     60.00% # Class of executed instruction
system.cpu2.op_class::SimdFloatReduceCmp            0      0.00%     60.00% # Class of executed instruction
system.cpu2.op_class::SimdAes                       0      0.00%     60.00% # Class of executed instruction
system.cpu2.op_class::SimdAesMix                    0      0.00%     60.00% # Class of executed instruction
system.cpu2.op_class::SimdSha1Hash                  0      0.00%     60.00% # Class of executed instruction
system.cpu2.op_class::SimdSha1Hash2                 0      0.00%     60.00% # Class of executed instruction
system.cpu2.op_class::SimdSha256Hash                0      0.00%     60.00% # Class of executed instruction
system.cpu2.op_class::SimdSha256Hash2               0      0.00%     60.00% # Class of executed instruction
system.cpu2.op_class::SimdShaSigma2                 0      0.00%     60.00% # Class of executed instruction
system.cpu2.op_class::SimdShaSigma3                 0      0.00%     60.00% # Class of executed instruction
system.cpu2.op_class::SimdPredAlu                   0      0.00%     60.00% # Class of executed instruction
system.cpu2.op_class::MemRead                       7     28.00%     88.00% # Class of executed instruction
system.cpu2.op_class::MemWrite                      3     12.00%    100.00% # Class of executed instruction
system.cpu2.op_class::FloatMemRead                  0      0.00%    100.00% # Class of executed instruction
system.cpu2.op_class::FloatMemWrite                 0      0.00%    100.00% # Class of executed instruction
system.cpu2.op_class::IprAccess                     0      0.00%    100.00% # Class of executed instruction
system.cpu2.op_class::InstPrefetch                  0      0.00%    100.00% # Class of executed instruction
system.cpu2.op_class::total                        25                       # Class of executed instruction
system.cpu2.workload.numSyscalls                    0                       # Number of system calls
system.cpu3.Branches                                2                       # Number of branches fetched
system.cpu3.committedInsts                         19                       # Number of instructions committed
system.cpu3.committedOps                           25                       # Number of ops (including micro ops) committed
system.cpu3.idle_fraction                           0                       # Percentage of idle cycles
system.cpu3.l2bus.snoop_filter.hit_multi_requests          472                       # Number of requests hitting in the snoop filter with multiple (>1) holders of the requested data.
system.cpu3.l2bus.snoop_filter.hit_multi_snoops          122                       # Number of snoops hitting in the snoop filter with multiple (>1) holders of the requested data.
system.cpu3.l2bus.snoop_filter.hit_single_requests      8448353                       # Number of requests hitting in the snoop filter with a single holder of the requested data.
system.cpu3.l2bus.snoop_filter.hit_single_snoops         3354                       # Number of snoops hitting in the snoop filter with a single holder of the requested data.
system.cpu3.l2bus.snoop_filter.tot_requests     16835008                       # Total number of requests made to the snoop filter.
system.cpu3.l2bus.snoop_filter.tot_snoops         3476                       # Total number of snoops made to the snoop filter.
system.cpu3.mmucache.mmubus.snoop_filter.hit_multi_requests            0                       # Number of requests hitting in the snoop filter with multiple (>1) holders of the requested data.
system.cpu3.mmucache.mmubus.snoop_filter.hit_multi_snoops            0                       # Number of snoops hitting in the snoop filter with multiple (>1) holders of the requested data.
system.cpu3.mmucache.mmubus.snoop_filter.hit_single_requests            0                       # Number of requests hitting in the snoop filter with a single holder of the requested data.
system.cpu3.mmucache.mmubus.snoop_filter.hit_single_snoops            0                       # Number of snoops hitting in the snoop filter with a single holder of the requested data.
system.cpu3.mmucache.mmubus.snoop_filter.tot_requests            0                       # Total number of requests made to the snoop filter.
system.cpu3.mmucache.mmubus.snoop_filter.tot_snoops            0                       # Total number of snoops made to the snoop filter.
system.cpu3.not_idle_fraction                       1                       # Percentage of non-idle cycles
system.cpu3.numCycles                              30                       # number of cpu cycles simulated
system.cpu3.numWorkItemsCompleted                   0                       # number of work items this cpu completed
system.cpu3.numWorkItemsStarted                     0                       # number of work items this cpu started
system.cpu3.num_busy_cycles                        30                       # Number of busy cycles
system.cpu3.num_cc_register_reads                  13                       # number of times the CC registers were read
system.cpu3.num_cc_register_writes                 12                       # number of times the CC registers were written
system.cpu3.num_conditional_control_insts            2                       # number of instructions that are conditional controls
system.cpu3.num_fp_alu_accesses                     0                       # Number of float alu accesses
system.cpu3.num_fp_insts                            0                       # number of float instructions
system.cpu3.num_fp_register_reads                   0                       # number of times the floating registers were read
system.cpu3.num_fp_register_writes                  0                       # number of times the floating registers were written
system.cpu3.num_func_calls                          0                       # number of times a function call or return occured
system.cpu3.num_idle_cycles                         0                       # Number of idle cycles
system.cpu3.num_int_alu_accesses                   25                       # Number of integer alu accesses
system.cpu3.num_int_insts                          25                       # number of integer instructions
system.cpu3.num_int_register_reads                 59                       # number of times the integer registers were read
system.cpu3.num_int_register_writes                20                       # number of times the integer registers were written
system.cpu3.num_load_insts                          7                       # Number of load instructions
system.cpu3.num_mem_refs                           10                       # number of memory refs
system.cpu3.num_store_insts                         3                       # Number of store instructions
system.cpu3.num_vec_alu_accesses                    0                       # Number of vector alu accesses
system.cpu3.num_vec_insts                           0                       # number of vector instructions
system.cpu3.num_vec_register_reads                  0                       # number of times the vector registers were read
system.cpu3.num_vec_register_writes                 0                       # number of times the vector registers were written
system.cpu3.op_class::No_OpClass                    0      0.00%      0.00% # Class of executed instruction
system.cpu3.op_class::IntAlu                       15     60.00%     60.00% # Class of executed instruction
system.cpu3.op_class::IntMult                       0      0.00%     60.00% # Class of executed instruction
system.cpu3.op_class::IntDiv                        0      0.00%     60.00% # Class of executed instruction
system.cpu3.op_class::FloatAdd                      0      0.00%     60.00% # Class of executed instruction
system.cpu3.op_class::FloatCmp                      0      0.00%     60.00% # Class of executed instruction
system.cpu3.op_class::FloatCvt                      0      0.00%     60.00% # Class of executed instruction
system.cpu3.op_class::FloatMult                     0      0.00%     60.00% # Class of executed instruction
system.cpu3.op_class::FloatMultAcc                  0      0.00%     60.00% # Class of executed instruction
system.cpu3.op_class::FloatDiv                      0      0.00%     60.00% # Class of executed instruction
system.cpu3.op_class::FloatMisc                     0      0.00%     60.00% # Class of executed instruction
system.cpu3.op_class::FloatSqrt                     0      0.00%     60.00% # Class of executed instruction
system.cpu3.op_class::SimdAdd                       0      0.00%     60.00% # Class of executed instruction
system.cpu3.op_class::SimdAddAcc                    0      0.00%     60.00% # Class of executed instruction
system.cpu3.op_class::SimdAlu                       0      0.00%     60.00% # Class of executed instruction
system.cpu3.op_class::SimdCmp                       0      0.00%     60.00% # Class of executed instruction
system.cpu3.op_class::SimdCvt                       0      0.00%     60.00% # Class of executed instruction
system.cpu3.op_class::SimdMisc                      0      0.00%     60.00% # Class of executed instruction
system.cpu3.op_class::SimdMult                      0      0.00%     60.00% # Class of executed instruction
system.cpu3.op_class::SimdMultAcc                   0      0.00%     60.00% # Class of executed instruction
system.cpu3.op_class::SimdShift                     0      0.00%     60.00% # Class of executed instruction
system.cpu3.op_class::SimdShiftAcc                  0      0.00%     60.00% # Class of executed instruction
system.cpu3.op_class::SimdDiv                       0      0.00%     60.00% # Class of executed instruction
system.cpu3.op_class::SimdSqrt                      0      0.00%     60.00% # Class of executed instruction
system.cpu3.op_class::SimdFloatAdd                  0      0.00%     60.00% # Class of executed instruction
system.cpu3.op_class::SimdFloatAlu                  0      0.00%     60.00% # Class of executed instruction
system.cpu3.op_class::SimdFloatCmp                  0      0.00%     60.00% # Class of executed instruction
system.cpu3.op_class::SimdFloatCvt                  0      0.00%     60.00% # Class of executed instruction
system.cpu3.op_class::SimdFloatDiv                  0      0.00%     60.00% # Class of executed instruction
system.cpu3.op_class::SimdFloatMisc                 0      0.00%     60.00% # Class of executed instruction
system.cpu3.op_class::SimdFloatMult                 0      0.00%     60.00% # Class of executed instruction
system.cpu3.op_class::SimdFloatMultAcc              0      0.00%     60.00% # Class of executed instruction
system.cpu3.op_class::SimdFloatSqrt                 0      0.00%     60.00% # Class of executed instruction
system.cpu3.op_class::SimdReduceAdd                 0      0.00%     60.00% # Class of executed instruction
system.cpu3.op_class::SimdReduceAlu                 0      0.00%     60.00% # Class of executed instruction
system.cpu3.op_class::SimdReduceCmp                 0      0.00%     60.00% # Class of executed instruction
system.cpu3.op_class::SimdFloatReduceAdd            0      0.00%     60.00% # Class of executed instruction
system.cpu3.op_class::SimdFloatReduceCmp            0      0.00%     60.00% # Class of executed instruction
system.cpu3.op_class::SimdAes                       0      0.00%     60.00% # Class of executed instruction
system.cpu3.op_class::SimdAesMix                    0      0.00%     60.00% # Class of executed instruction
system.cpu3.op_class::SimdSha1Hash                  0      0.00%     60.00% # Class of executed instruction
system.cpu3.op_class::SimdSha1Hash2                 0      0.00%     60.00% # Class of executed instruction
system.cpu3.op_class::SimdSha256Hash                0      0.00%     60.00% # Class of executed instruction
system.cpu3.op_class::SimdSha256Hash2               0      0.00%     60.00% # Class of executed instruction
system.cpu3.op_class::SimdShaSigma2                 0      0.00%     60.00% # Class of executed instruction
system.cpu3.op_class::SimdShaSigma3                 0      0.00%     60.00% # Class of executed instruction
system.cpu3.op_class::SimdPredAlu                   0      0.00%     60.00% # Class of executed instruction
system.cpu3.op_class::MemRead                       7     28.00%     88.00% # Class of executed instruction
system.cpu3.op_class::MemWrite                      3     12.00%    100.00% # Class of executed instruction
system.cpu3.op_class::FloatMemRead                  0      0.00%    100.00% # Class of executed instruction
system.cpu3.op_class::FloatMemWrite                 0      0.00%    100.00% # Class of executed instruction
system.cpu3.op_class::IprAccess                     0      0.00%    100.00% # Class of executed instruction
system.cpu3.op_class::InstPrefetch                  0      0.00%    100.00% # Class of executed instruction
system.cpu3.op_class::total                        25                       # Class of executed instruction
system.cpu3.workload.numSyscalls                    0                       # Number of system calls
system.l3bus.snoop_filter.hit_multi_requests            0                       # Number of requests hitting in the snoop filter with multiple (>1) holders of the requested data.
system.l3bus.snoop_filter.hit_multi_snoops            0                       # Number of snoops hitting in the snoop filter with multiple (>1) holders of the requested data.
system.l3bus.snoop_filter.hit_single_requests     18114244                       # Number of requests hitting in the snoop filter with a single holder of the requested data.
system.l3bus.snoop_filter.hit_single_snoops            0                       # Number of snoops hitting in the snoop filter with a single holder of the requested data.
system.l3bus.snoop_filter.tot_requests       36242712                       # Total number of requests made to the snoop filter.
system.l3bus.snoop_filter.tot_snoops                0                       # Total number of snoops made to the snoop filter.
system.membus.snoop_filter.hit_multi_requests            0                       # Number of requests hitting in the snoop filter with multiple (>1) holders of the requested data.
system.membus.snoop_filter.hit_multi_snoops            0                       # Number of snoops hitting in the snoop filter with multiple (>1) holders of the requested data.
system.membus.snoop_filter.hit_single_requests      6804314                       # Number of requests hitting in the snoop filter with a single holder of the requested data.
system.membus.snoop_filter.hit_single_snoops            0                       # Number of snoops hitting in the snoop filter with a single holder of the requested data.
system.membus.snoop_filter.tot_requests      13677914                       # Total number of requests made to the snoop filter.
system.membus.snoop_filter.tot_snoops               0                       # Total number of snoops made to the snoop filter.
system.switch_cpus0.cc_regfile_reads        380058327                       # number of cc regfile reads
system.switch_cpus0.cc_regfile_writes       155223907                       # number of cc regfile writes
system.switch_cpus0.committedInsts          249567308                       # Number of Instructions Simulated
system.switch_cpus0.committedOps            429874857                       # Number of Ops (including micro ops) Simulated
system.switch_cpus0.cpi                      1.604333                       # CPI: Cycles Per Instruction
system.switch_cpus0.cpi_total                1.604333                       # CPI: Total CPI of All Threads
system.switch_cpus0.fp_regfile_writes              56                       # number of floating regfile writes
system.switch_cpus0.idleCycles                   8154                       # Total number of cycles that the CPU has spent unscheduled due to idling
system.switch_cpus0.iew.branchMispredicts      5973513                       # Number of branch mispredicts detected at execute
system.switch_cpus0.iew.exec_branches       100564958                       # Number of branches executed
system.switch_cpus0.iew.exec_nop                    0                       # number of nop insts executed
system.switch_cpus0.iew.exec_rate            1.727176                       # Inst execution rate
system.switch_cpus0.iew.exec_refs           171590083                       # number of memory reference insts executed
system.switch_cpus0.iew.exec_stores          35802121                       # Number of stores executed
system.switch_cpus0.iew.exec_swp                    0                       # number of swp insts executed
system.switch_cpus0.iew.iewBlockCycles      164195180                       # Number of cycles IEW is blocking
system.switch_cpus0.iew.iewDispLoadInsts    156325157                       # Number of dispatched load instructions
system.switch_cpus0.iew.iewDispNonSpecInsts            0                       # Number of dispatched non-speculative instructions
system.switch_cpus0.iew.iewDispSquashedInsts       209172                       # Number of squashed instructions skipped by dispatch
system.switch_cpus0.iew.iewDispStoreInsts     40650831                       # Number of dispatched store instructions
system.switch_cpus0.iew.iewDispatchedInsts    789898751                       # Number of instructions dispatched to IQ
system.switch_cpus0.iew.iewExecLoadInsts    135787962                       # Number of load instructions executed
system.switch_cpus0.iew.iewExecSquashedInsts     17710428                       # Number of squashed instructions skipped in execute
system.switch_cpus0.iew.iewExecutedInsts    691542493                       # Number of executed instructions
system.switch_cpus0.iew.iewIQFullEvents        806132                       # Number of times the IQ has become full, causing a stall
system.switch_cpus0.iew.iewIdleCycles               0                       # Number of cycles IEW is idle
system.switch_cpus0.iew.iewLSQFullEvents     15819306                       # Number of times the LSQ has become full, causing a stall
system.switch_cpus0.iew.iewSquashCycles       5780747                       # Number of cycles IEW is squashing
system.switch_cpus0.iew.iewUnblockCycles     17278397                       # Number of cycles IEW is unblocking
system.switch_cpus0.iew.memOrderViolationEvents        22664                       # Number of memory order violations
system.switch_cpus0.iew.predictedNotTakenIncorrect      3268308                       # Number of branches that were predicted not taken incorrectly
system.switch_cpus0.iew.predictedTakenIncorrect      2705205                       # Number of branches that were predicted taken incorrectly
system.switch_cpus0.iew.wb_consumers        721629355                       # num instructions consuming a value
system.switch_cpus0.iew.wb_count            683045567                       # cumulative count of insts written-back
system.switch_cpus0.iew.wb_fanout            0.655430                       # average fanout of values written-back
system.switch_cpus0.iew.wb_producers        472977855                       # num instructions producing a value
system.switch_cpus0.iew.wb_rate              1.705954                       # insts written-back per cycle
system.switch_cpus0.iew.wb_sent             687714443                       # cumulative count of insts sent to commit
system.switch_cpus0.int_regfile_reads       989843929                       # number of integer regfile reads
system.switch_cpus0.int_regfile_writes      555380583                       # number of integer regfile writes
system.switch_cpus0.ipc                      0.623312                       # IPC: Instructions Per Cycle
system.switch_cpus0.ipc_total                0.623312                       # IPC: Total IPC of All Threads
system.switch_cpus0.iq.FU_type_0::No_OpClass       313840      0.04%      0.04% # Type of FU issued
system.switch_cpus0.iq.FU_type_0::IntAlu    527343962     74.35%     74.40% # Type of FU issued
system.switch_cpus0.iq.FU_type_0::IntMult       729151      0.10%     74.50% # Type of FU issued
system.switch_cpus0.iq.FU_type_0::IntDiv      1848052      0.26%     74.76% # Type of FU issued
system.switch_cpus0.iq.FU_type_0::FloatAdd            0      0.00%     74.76% # Type of FU issued
system.switch_cpus0.iq.FU_type_0::FloatCmp            0      0.00%     74.76% # Type of FU issued
system.switch_cpus0.iq.FU_type_0::FloatCvt            0      0.00%     74.76% # Type of FU issued
system.switch_cpus0.iq.FU_type_0::FloatMult            0      0.00%     74.76% # Type of FU issued
system.switch_cpus0.iq.FU_type_0::FloatMultAcc            0      0.00%     74.76% # Type of FU issued
system.switch_cpus0.iq.FU_type_0::FloatDiv            0      0.00%     74.76% # Type of FU issued
system.switch_cpus0.iq.FU_type_0::FloatMisc            0      0.00%     74.76% # Type of FU issued
system.switch_cpus0.iq.FU_type_0::FloatSqrt            0      0.00%     74.76% # Type of FU issued
system.switch_cpus0.iq.FU_type_0::SimdAdd            0      0.00%     74.76% # Type of FU issued
system.switch_cpus0.iq.FU_type_0::SimdAddAcc            0      0.00%     74.76% # Type of FU issued
system.switch_cpus0.iq.FU_type_0::SimdAlu            0      0.00%     74.76% # Type of FU issued
system.switch_cpus0.iq.FU_type_0::SimdCmp            0      0.00%     74.76% # Type of FU issued
system.switch_cpus0.iq.FU_type_0::SimdCvt            0      0.00%     74.76% # Type of FU issued
system.switch_cpus0.iq.FU_type_0::SimdMisc            0      0.00%     74.76% # Type of FU issued
system.switch_cpus0.iq.FU_type_0::SimdMult            0      0.00%     74.76% # Type of FU issued
system.switch_cpus0.iq.FU_type_0::SimdMultAcc            0      0.00%     74.76% # Type of FU issued
system.switch_cpus0.iq.FU_type_0::SimdShift            0      0.00%     74.76% # Type of FU issued
system.switch_cpus0.iq.FU_type_0::SimdShiftAcc            0      0.00%     74.76% # Type of FU issued
system.switch_cpus0.iq.FU_type_0::SimdDiv            0      0.00%     74.76% # Type of FU issued
system.switch_cpus0.iq.FU_type_0::SimdSqrt            0      0.00%     74.76% # Type of FU issued
system.switch_cpus0.iq.FU_type_0::SimdFloatAdd            0      0.00%     74.76% # Type of FU issued
system.switch_cpus0.iq.FU_type_0::SimdFloatAlu            0      0.00%     74.76% # Type of FU issued
system.switch_cpus0.iq.FU_type_0::SimdFloatCmp            0      0.00%     74.76% # Type of FU issued
system.switch_cpus0.iq.FU_type_0::SimdFloatCvt            0      0.00%     74.76% # Type of FU issued
system.switch_cpus0.iq.FU_type_0::SimdFloatDiv            0      0.00%     74.76% # Type of FU issued
system.switch_cpus0.iq.FU_type_0::SimdFloatMisc            0      0.00%     74.76% # Type of FU issued
system.switch_cpus0.iq.FU_type_0::SimdFloatMult            0      0.00%     74.76% # Type of FU issued
system.switch_cpus0.iq.FU_type_0::SimdFloatMultAcc            0      0.00%     74.76% # Type of FU issued
system.switch_cpus0.iq.FU_type_0::SimdFloatSqrt            0      0.00%     74.76% # Type of FU issued
system.switch_cpus0.iq.FU_type_0::SimdReduceAdd            0      0.00%     74.76% # Type of FU issued
system.switch_cpus0.iq.FU_type_0::SimdReduceAlu            0      0.00%     74.76% # Type of FU issued
system.switch_cpus0.iq.FU_type_0::SimdReduceCmp            0      0.00%     74.76% # Type of FU issued
system.switch_cpus0.iq.FU_type_0::SimdFloatReduceAdd            0      0.00%     74.76% # Type of FU issued
system.switch_cpus0.iq.FU_type_0::SimdFloatReduceCmp            0      0.00%     74.76% # Type of FU issued
system.switch_cpus0.iq.FU_type_0::SimdAes            0      0.00%     74.76% # Type of FU issued
system.switch_cpus0.iq.FU_type_0::SimdAesMix            0      0.00%     74.76% # Type of FU issued
system.switch_cpus0.iq.FU_type_0::SimdSha1Hash            0      0.00%     74.76% # Type of FU issued
system.switch_cpus0.iq.FU_type_0::SimdSha1Hash2            0      0.00%     74.76% # Type of FU issued
system.switch_cpus0.iq.FU_type_0::SimdSha256Hash            0      0.00%     74.76% # Type of FU issued
system.switch_cpus0.iq.FU_type_0::SimdSha256Hash2            0      0.00%     74.76% # Type of FU issued
system.switch_cpus0.iq.FU_type_0::SimdShaSigma2            0      0.00%     74.76% # Type of FU issued
system.switch_cpus0.iq.FU_type_0::SimdShaSigma3            0      0.00%     74.76% # Type of FU issued
system.switch_cpus0.iq.FU_type_0::SimdPredAlu            0      0.00%     74.76% # Type of FU issued
system.switch_cpus0.iq.FU_type_0::MemRead    141768445     19.99%     94.75% # Type of FU issued
system.switch_cpus0.iq.FU_type_0::MemWrite     37249476      5.25%    100.00% # Type of FU issued
system.switch_cpus0.iq.FU_type_0::FloatMemRead            0      0.00%    100.00% # Type of FU issued
system.switch_cpus0.iq.FU_type_0::FloatMemWrite            0      0.00%    100.00% # Type of FU issued
system.switch_cpus0.iq.FU_type_0::IprAccess            0      0.00%    100.00% # Type of FU issued
system.switch_cpus0.iq.FU_type_0::InstPrefetch            0      0.00%    100.00% # Type of FU issued
system.switch_cpus0.iq.FU_type_0::total     709252926                       # Type of FU issued
system.switch_cpus0.iq.fp_alu_accesses              0                       # Number of floating point alu accesses
system.switch_cpus0.iq.fp_inst_queue_reads            0                       # Number of floating instruction queue reads
system.switch_cpus0.iq.fp_inst_queue_wakeup_accesses            0                       # Number of floating instruction queue wakeup accesses
system.switch_cpus0.iq.fp_inst_queue_writes            0                       # Number of floating instruction queue writes
system.switch_cpus0.iq.fu_busy_cnt           13678988                       # FU busy when requested
system.switch_cpus0.iq.fu_busy_rate          0.019286                       # FU busy rate (busy events/executed inst)
system.switch_cpus0.iq.fu_full::No_OpClass            0      0.00%      0.00% # attempts to use FU when none available
system.switch_cpus0.iq.fu_full::IntAlu       11944801     87.32%     87.32% # attempts to use FU when none available
system.switch_cpus0.iq.fu_full::IntMult             0      0.00%     87.32% # attempts to use FU when none available
system.switch_cpus0.iq.fu_full::IntDiv              0      0.00%     87.32% # attempts to use FU when none available
system.switch_cpus0.iq.fu_full::FloatAdd            0      0.00%     87.32% # attempts to use FU when none available
system.switch_cpus0.iq.fu_full::FloatCmp            0      0.00%     87.32% # attempts to use FU when none available
system.switch_cpus0.iq.fu_full::FloatCvt            0      0.00%     87.32% # attempts to use FU when none available
system.switch_cpus0.iq.fu_full::FloatMult            0      0.00%     87.32% # attempts to use FU when none available
system.switch_cpus0.iq.fu_full::FloatMultAcc            0      0.00%     87.32% # attempts to use FU when none available
system.switch_cpus0.iq.fu_full::FloatDiv            0      0.00%     87.32% # attempts to use FU when none available
system.switch_cpus0.iq.fu_full::FloatMisc            0      0.00%     87.32% # attempts to use FU when none available
system.switch_cpus0.iq.fu_full::FloatSqrt            0      0.00%     87.32% # attempts to use FU when none available
system.switch_cpus0.iq.fu_full::SimdAdd             0      0.00%     87.32% # attempts to use FU when none available
system.switch_cpus0.iq.fu_full::SimdAddAcc            0      0.00%     87.32% # attempts to use FU when none available
system.switch_cpus0.iq.fu_full::SimdAlu             0      0.00%     87.32% # attempts to use FU when none available
system.switch_cpus0.iq.fu_full::SimdCmp             0      0.00%     87.32% # attempts to use FU when none available
system.switch_cpus0.iq.fu_full::SimdCvt             0      0.00%     87.32% # attempts to use FU when none available
system.switch_cpus0.iq.fu_full::SimdMisc            0      0.00%     87.32% # attempts to use FU when none available
system.switch_cpus0.iq.fu_full::SimdMult            0      0.00%     87.32% # attempts to use FU when none available
system.switch_cpus0.iq.fu_full::SimdMultAcc            0      0.00%     87.32% # attempts to use FU when none available
system.switch_cpus0.iq.fu_full::SimdShift            0      0.00%     87.32% # attempts to use FU when none available
system.switch_cpus0.iq.fu_full::SimdShiftAcc            0      0.00%     87.32% # attempts to use FU when none available
system.switch_cpus0.iq.fu_full::SimdDiv             0      0.00%     87.32% # attempts to use FU when none available
system.switch_cpus0.iq.fu_full::SimdSqrt            0      0.00%     87.32% # attempts to use FU when none available
system.switch_cpus0.iq.fu_full::SimdFloatAdd            0      0.00%     87.32% # attempts to use FU when none available
system.switch_cpus0.iq.fu_full::SimdFloatAlu            0      0.00%     87.32% # attempts to use FU when none available
system.switch_cpus0.iq.fu_full::SimdFloatCmp            0      0.00%     87.32% # attempts to use FU when none available
system.switch_cpus0.iq.fu_full::SimdFloatCvt            0      0.00%     87.32% # attempts to use FU when none available
system.switch_cpus0.iq.fu_full::SimdFloatDiv            0      0.00%     87.32% # attempts to use FU when none available
system.switch_cpus0.iq.fu_full::SimdFloatMisc            0      0.00%     87.32% # attempts to use FU when none available
system.switch_cpus0.iq.fu_full::SimdFloatMult            0      0.00%     87.32% # attempts to use FU when none available
system.switch_cpus0.iq.fu_full::SimdFloatMultAcc            0      0.00%     87.32% # attempts to use FU when none available
system.switch_cpus0.iq.fu_full::SimdFloatSqrt            0      0.00%     87.32% # attempts to use FU when none available
system.switch_cpus0.iq.fu_full::SimdReduceAdd            0      0.00%     87.32% # attempts to use FU when none available
system.switch_cpus0.iq.fu_full::SimdReduceAlu            0      0.00%     87.32% # attempts to use FU when none available
system.switch_cpus0.iq.fu_full::SimdReduceCmp            0      0.00%     87.32% # attempts to use FU when none available
system.switch_cpus0.iq.fu_full::SimdFloatReduceAdd            0      0.00%     87.32% # attempts to use FU when none available
system.switch_cpus0.iq.fu_full::SimdFloatReduceCmp            0      0.00%     87.32% # attempts to use FU when none available
system.switch_cpus0.iq.fu_full::SimdAes             0      0.00%     87.32% # attempts to use FU when none available
system.switch_cpus0.iq.fu_full::SimdAesMix            0      0.00%     87.32% # attempts to use FU when none available
system.switch_cpus0.iq.fu_full::SimdSha1Hash            0      0.00%     87.32% # attempts to use FU when none available
system.switch_cpus0.iq.fu_full::SimdSha1Hash2            0      0.00%     87.32% # attempts to use FU when none available
system.switch_cpus0.iq.fu_full::SimdSha256Hash            0      0.00%     87.32% # attempts to use FU when none available
system.switch_cpus0.iq.fu_full::SimdSha256Hash2            0      0.00%     87.32% # attempts to use FU when none available
system.switch_cpus0.iq.fu_full::SimdShaSigma2            0      0.00%     87.32% # attempts to use FU when none available
system.switch_cpus0.iq.fu_full::SimdShaSigma3            0      0.00%     87.32% # attempts to use FU when none available
system.switch_cpus0.iq.fu_full::SimdPredAlu            0      0.00%     87.32% # attempts to use FU when none available
system.switch_cpus0.iq.fu_full::MemRead       1606789     11.75%     99.07% # attempts to use FU when none available
system.switch_cpus0.iq.fu_full::MemWrite       127398      0.93%    100.00% # attempts to use FU when none available
system.switch_cpus0.iq.fu_full::FloatMemRead            0      0.00%    100.00% # attempts to use FU when none available
system.switch_cpus0.iq.fu_full::FloatMemWrite            0      0.00%    100.00% # attempts to use FU when none available
system.switch_cpus0.iq.fu_full::IprAccess            0      0.00%    100.00% # attempts to use FU when none available
system.switch_cpus0.iq.fu_full::InstPrefetch            0      0.00%    100.00% # attempts to use FU when none available
system.switch_cpus0.iq.int_alu_accesses     722618074                       # Number of integer alu accesses
system.switch_cpus0.iq.int_inst_queue_reads   1835186860                       # Number of integer instruction queue reads
system.switch_cpus0.iq.int_inst_queue_wakeup_accesses    683045567                       # Number of integer instruction queue wakeup accesses
system.switch_cpus0.iq.int_inst_queue_writes   1149944102                       # Number of integer instruction queue writes
system.switch_cpus0.iq.iqInstsAdded         789898751                       # Number of instructions added to the IQ (excludes non-spec)
system.switch_cpus0.iq.iqInstsIssued        709252926                       # Number of instructions issued
system.switch_cpus0.iq.iqSquashedInstsExamined    360023827                       # Number of squashed instructions iterated over during squash; mainly for profiling
system.switch_cpus0.iq.iqSquashedInstsIssued      2621035                       # Number of squashed instructions issued
system.switch_cpus0.iq.iqSquashedOperandsExamined    383084139                       # Number of squashed operands that are examined and possibly removed from graph
system.switch_cpus0.iq.issued_per_cycle::samples    400380990                       # Number of insts issued each cycle
system.switch_cpus0.iq.issued_per_cycle::mean     1.771445                       # Number of insts issued each cycle
system.switch_cpus0.iq.issued_per_cycle::stdev     2.687516                       # Number of insts issued each cycle
system.switch_cpus0.iq.issued_per_cycle::underflows            0      0.00%      0.00% # Number of insts issued each cycle
system.switch_cpus0.iq.issued_per_cycle::0    248051873     61.95%     61.95% # Number of insts issued each cycle
system.switch_cpus0.iq.issued_per_cycle::1     23555592      5.88%     67.84% # Number of insts issued each cycle
system.switch_cpus0.iq.issued_per_cycle::2     15835004      3.95%     71.79% # Number of insts issued each cycle
system.switch_cpus0.iq.issued_per_cycle::3     10701860      2.67%     74.47% # Number of insts issued each cycle
system.switch_cpus0.iq.issued_per_cycle::4     15791728      3.94%     78.41% # Number of insts issued each cycle
system.switch_cpus0.iq.issued_per_cycle::5     20464194      5.11%     83.52% # Number of insts issued each cycle
system.switch_cpus0.iq.issued_per_cycle::6     24589549      6.14%     89.66% # Number of insts issued each cycle
system.switch_cpus0.iq.issued_per_cycle::7     22232950      5.55%     95.21% # Number of insts issued each cycle
system.switch_cpus0.iq.issued_per_cycle::8     19158240      4.79%    100.00% # Number of insts issued each cycle
system.switch_cpus0.iq.issued_per_cycle::overflows            0      0.00%    100.00% # Number of insts issued each cycle
system.switch_cpus0.iq.issued_per_cycle::min_value            0                       # Number of insts issued each cycle
system.switch_cpus0.iq.issued_per_cycle::max_value            8                       # Number of insts issued each cycle
system.switch_cpus0.iq.issued_per_cycle::total    400380990                       # Number of insts issued each cycle
system.switch_cpus0.iq.rate                  1.771409                       # Inst issue rate
system.switch_cpus0.iq.vec_alu_accesses             0                       # Number of vector alu accesses
system.switch_cpus0.iq.vec_inst_queue_reads            0                       # Number of vector instruction queue reads
system.switch_cpus0.iq.vec_inst_queue_wakeup_accesses            0                       # Number of vector instruction queue wakeup accesses
system.switch_cpus0.iq.vec_inst_queue_writes            0                       # Number of vector instruction queue writes
system.switch_cpus0.memDep0.conflictingLoads     15058297                       # Number of conflicting loads.
system.switch_cpus0.memDep0.conflictingStores      4908980                       # Number of conflicting stores.
system.switch_cpus0.memDep0.insertedLoads    156325157                       # Number of loads inserted to the mem dependence unit.
system.switch_cpus0.memDep0.insertedStores     40650831                       # Number of stores inserted to the mem dependence unit.
system.switch_cpus0.misc_regfile_reads      372376417                       # number of misc regfile reads
system.switch_cpus0.misc_regfile_writes             1                       # number of misc regfile writes
system.switch_cpus0.numCycles               400389144                       # number of cpu cycles simulated
system.switch_cpus0.numWorkItemsCompleted            0                       # number of work items this cpu completed
system.switch_cpus0.numWorkItemsStarted             0                       # number of work items this cpu started
system.switch_cpus0.timesIdled                     52                       # Number of times that the entire CPU went into an idle state and unscheduled itself
system.switch_cpus1.cc_regfile_reads        379041870                       # number of cc regfile reads
system.switch_cpus1.cc_regfile_writes       154830919                       # number of cc regfile writes
system.switch_cpus1.committedInsts          248908537                       # Number of Instructions Simulated
system.switch_cpus1.committedOps            428724704                       # Number of Ops (including micro ops) Simulated
system.switch_cpus1.cpi                      1.608579                       # CPI: Cycles Per Instruction
system.switch_cpus1.cpi_total                1.608579                       # CPI: Total CPI of All Threads
system.switch_cpus1.fp_regfile_writes              56                       # number of floating regfile writes
system.switch_cpus1.idleCycles                   8152                       # Total number of cycles that the CPU has spent unscheduled due to idling
system.switch_cpus1.iew.branchMispredicts      5955257                       # Number of branch mispredicts detected at execute
system.switch_cpus1.iew.exec_branches       100299224                       # Number of branches executed
system.switch_cpus1.iew.exec_nop                    0                       # number of nop insts executed
system.switch_cpus1.iew.exec_rate            1.722541                       # Inst execution rate
system.switch_cpus1.iew.exec_refs           171115536                       # number of memory reference insts executed
system.switch_cpus1.iew.exec_stores          35702346                       # Number of stores executed
system.switch_cpus1.iew.exec_swp                    0                       # number of swp insts executed
system.switch_cpus1.iew.iewBlockCycles      164608368                       # Number of cycles IEW is blocking
system.switch_cpus1.iew.iewDispLoadInsts    155909405                       # Number of dispatched load instructions
system.switch_cpus1.iew.iewDispNonSpecInsts            0                       # Number of dispatched non-speculative instructions
system.switch_cpus1.iew.iewDispSquashedInsts       209357                       # Number of squashed instructions skipped by dispatch
system.switch_cpus1.iew.iewDispStoreInsts     40547607                       # Number of dispatched store instructions
system.switch_cpus1.iew.iewDispatchedInsts    787787967                       # Number of instructions dispatched to IQ
system.switch_cpus1.iew.iewExecLoadInsts    135413190                       # Number of load instructions executed
system.switch_cpus1.iew.iewExecSquashedInsts     17652445                       # Number of squashed instructions skipped in execute
system.switch_cpus1.iew.iewExecutedInsts    689686523                       # Number of executed instructions
system.switch_cpus1.iew.iewIQFullEvents        810063                       # Number of times the IQ has become full, causing a stall
system.switch_cpus1.iew.iewIdleCycles               0                       # Number of cycles IEW is idle
system.switch_cpus1.iew.iewLSQFullEvents     15988706                       # Number of times the LSQ has become full, causing a stall
system.switch_cpus1.iew.iewSquashCycles       5762564                       # Number of cycles IEW is squashing
system.switch_cpus1.iew.iewUnblockCycles     17455618                       # Number of cycles IEW is unblocking
system.switch_cpus1.iew.memOrderViolationEvents        22906                       # Number of memory order violations
system.switch_cpus1.iew.predictedNotTakenIncorrect      3258379                       # Number of branches that were predicted not taken incorrectly
system.switch_cpus1.iew.predictedTakenIncorrect      2696878                       # Number of branches that were predicted taken incorrectly
system.switch_cpus1.iew.wb_consumers        719673884                       # num instructions consuming a value
system.switch_cpus1.iew.wb_count            681216598                       # cumulative count of insts written-back
system.switch_cpus1.iew.wb_fanout            0.655417                       # average fanout of values written-back
system.switch_cpus1.iew.wb_producers        471686271                       # num instructions producing a value
system.switch_cpus1.iew.wb_rate              1.701386                       # insts written-back per cycle
system.switch_cpus1.iew.wb_sent             685869735                       # cumulative count of insts sent to commit
system.switch_cpus1.int_regfile_reads       987154908                       # number of integer regfile reads
system.switch_cpus1.int_regfile_writes      553887535                       # number of integer regfile writes
system.switch_cpus1.ipc                      0.621667                       # IPC: Instructions Per Cycle
system.switch_cpus1.ipc_total                0.621667                       # IPC: Total IPC of All Threads
system.switch_cpus1.iq.FU_type_0::No_OpClass       312963      0.04%      0.04% # Type of FU issued
system.switch_cpus1.iq.FU_type_0::IntAlu    525940664     74.35%     74.40% # Type of FU issued
system.switch_cpus1.iq.FU_type_0::IntMult       726685      0.10%     74.50% # Type of FU issued
system.switch_cpus1.iq.FU_type_0::IntDiv      1841830      0.26%     74.76% # Type of FU issued
system.switch_cpus1.iq.FU_type_0::FloatAdd            0      0.00%     74.76% # Type of FU issued
system.switch_cpus1.iq.FU_type_0::FloatCmp            0      0.00%     74.76% # Type of FU issued
system.switch_cpus1.iq.FU_type_0::FloatCvt            0      0.00%     74.76% # Type of FU issued
system.switch_cpus1.iq.FU_type_0::FloatMult            0      0.00%     74.76% # Type of FU issued
system.switch_cpus1.iq.FU_type_0::FloatMultAcc            0      0.00%     74.76% # Type of FU issued
system.switch_cpus1.iq.FU_type_0::FloatDiv            0      0.00%     74.76% # Type of FU issued
system.switch_cpus1.iq.FU_type_0::FloatMisc            0      0.00%     74.76% # Type of FU issued
system.switch_cpus1.iq.FU_type_0::FloatSqrt            0      0.00%     74.76% # Type of FU issued
system.switch_cpus1.iq.FU_type_0::SimdAdd            0      0.00%     74.76% # Type of FU issued
system.switch_cpus1.iq.FU_type_0::SimdAddAcc            0      0.00%     74.76% # Type of FU issued
system.switch_cpus1.iq.FU_type_0::SimdAlu            0      0.00%     74.76% # Type of FU issued
system.switch_cpus1.iq.FU_type_0::SimdCmp            0      0.00%     74.76% # Type of FU issued
system.switch_cpus1.iq.FU_type_0::SimdCvt            0      0.00%     74.76% # Type of FU issued
system.switch_cpus1.iq.FU_type_0::SimdMisc            0      0.00%     74.76% # Type of FU issued
system.switch_cpus1.iq.FU_type_0::SimdMult            0      0.00%     74.76% # Type of FU issued
system.switch_cpus1.iq.FU_type_0::SimdMultAcc            0      0.00%     74.76% # Type of FU issued
system.switch_cpus1.iq.FU_type_0::SimdShift            0      0.00%     74.76% # Type of FU issued
system.switch_cpus1.iq.FU_type_0::SimdShiftAcc            0      0.00%     74.76% # Type of FU issued
system.switch_cpus1.iq.FU_type_0::SimdDiv            0      0.00%     74.76% # Type of FU issued
system.switch_cpus1.iq.FU_type_0::SimdSqrt            0      0.00%     74.76% # Type of FU issued
system.switch_cpus1.iq.FU_type_0::SimdFloatAdd            0      0.00%     74.76% # Type of FU issued
system.switch_cpus1.iq.FU_type_0::SimdFloatAlu            0      0.00%     74.76% # Type of FU issued
system.switch_cpus1.iq.FU_type_0::SimdFloatCmp            0      0.00%     74.76% # Type of FU issued
system.switch_cpus1.iq.FU_type_0::SimdFloatCvt            0      0.00%     74.76% # Type of FU issued
system.switch_cpus1.iq.FU_type_0::SimdFloatDiv            0      0.00%     74.76% # Type of FU issued
system.switch_cpus1.iq.FU_type_0::SimdFloatMisc            0      0.00%     74.76% # Type of FU issued
system.switch_cpus1.iq.FU_type_0::SimdFloatMult            0      0.00%     74.76% # Type of FU issued
system.switch_cpus1.iq.FU_type_0::SimdFloatMultAcc            0      0.00%     74.76% # Type of FU issued
system.switch_cpus1.iq.FU_type_0::SimdFloatSqrt            0      0.00%     74.76% # Type of FU issued
system.switch_cpus1.iq.FU_type_0::SimdReduceAdd            0      0.00%     74.76% # Type of FU issued
system.switch_cpus1.iq.FU_type_0::SimdReduceAlu            0      0.00%     74.76% # Type of FU issued
system.switch_cpus1.iq.FU_type_0::SimdReduceCmp            0      0.00%     74.76% # Type of FU issued
system.switch_cpus1.iq.FU_type_0::SimdFloatReduceAdd            0      0.00%     74.76% # Type of FU issued
system.switch_cpus1.iq.FU_type_0::SimdFloatReduceCmp            0      0.00%     74.76% # Type of FU issued
system.switch_cpus1.iq.FU_type_0::SimdAes            0      0.00%     74.76% # Type of FU issued
system.switch_cpus1.iq.FU_type_0::SimdAesMix            0      0.00%     74.76% # Type of FU issued
system.switch_cpus1.iq.FU_type_0::SimdSha1Hash            0      0.00%     74.76% # Type of FU issued
system.switch_cpus1.iq.FU_type_0::SimdSha1Hash2            0      0.00%     74.76% # Type of FU issued
system.switch_cpus1.iq.FU_type_0::SimdSha256Hash            0      0.00%     74.76% # Type of FU issued
[...]
system.switch_cpus3.commit.numCommittedDist::mean     1.231075                       # Number of insts commited each cycle
system.switch_cpus3.commit.numCommittedDist::stdev     2.456128                       # Number of insts commited each cycle
system.switch_cpus3.commit.numCommittedDist::underflows            0      0.00%      0.00% # Number of insts commited each cycle
system.switch_cpus3.commit.numCommittedDist::0    245525933     70.29%     70.29% # Number of insts commited each cycle
system.switch_cpus3.commit.numCommittedDist::1     29050983      8.32%     78.61% # Number of insts commited each cycle
system.switch_cpus3.commit.numCommittedDist::2     12658034      3.62%     82.23% # Number of insts commited each cycle
system.switch_cpus3.commit.numCommittedDist::3     13413959      3.84%     86.07% # Number of insts commited each cycle
system.switch_cpus3.commit.numCommittedDist::4      8583931      2.46%     88.53% # Number of insts commited each cycle
system.switch_cpus3.commit.numCommittedDist::5      3790760      1.09%     89.61% # Number of insts commited each cycle
system.switch_cpus3.commit.numCommittedDist::6      2130716      0.61%     90.22% # Number of insts commited each cycle
system.switch_cpus3.commit.numCommittedDist::7      3907233      1.12%     91.34% # Number of insts commited each cycle
system.switch_cpus3.commit.numCommittedDist::8     30249320      8.66%    100.00% # Number of insts commited each cycle
system.switch_cpus3.commit.numCommittedDist::overflows            0      0.00%    100.00% # Number of insts commited each cycle
system.switch_cpus3.commit.numCommittedDist::min_value            0                       # Number of insts commited each cycle
system.switch_cpus3.commit.numCommittedDist::max_value            8                       # Number of insts commited each cycle
system.switch_cpus3.commit.numCommittedDist::total    349310869                       # Number of insts commited each cycle
system.switch_cpus3.commit.instsCommitted    249655880                       # Number of instructions committed
system.switch_cpus3.commit.opsCommitted     430027939                       # Number of ops (including micro ops) committed
system.switch_cpus3.commit.memRefs          109277266                       # Number of memory references committed
system.switch_cpus3.commit.loads             85331389                       # Number of loads committed
system.switch_cpus3.commit.amos                     0                       # Number of atomic instructions committed
system.switch_cpus3.commit.membars                  0                       # Number of memory barriers committed
system.switch_cpus3.commit.branches          64227967                       # Number of branches committed
system.switch_cpus3.commit.vector                   0                       # Number of committed Vector instructions.
system.switch_cpus3.commit.floating                 0                       # Number of committed floating point instructions.
system.switch_cpus3.commit.integer          429492488                       # Number of committed integer instructions.
system.switch_cpus3.commit.functionCalls      8259184                       # Number of function calls committed.
system.switch_cpus3.commit.committedInstType_0::No_OpClass       281302      0.07%      0.07% # Class of committed instruction
system.switch_cpus3.commit.committedInstType_0::IntAlu    318127187     73.98%     74.04% # Class of committed instruction
system.switch_cpus3.commit.committedInstType_0::IntMult       562880      0.13%     74.17% # Class of committed instruction
system.switch_cpus3.commit.committedInstType_0::IntDiv      1779304      0.41%     74.59% # Class of committed instruction
system.switch_cpus3.commit.committedInstType_0::FloatAdd            0      0.00%     74.59% # Class of committed instruction
system.switch_cpus3.commit.committedInstType_0::FloatCmp            0      0.00%     74.59% # Class of committed instruction
system.switch_cpus3.commit.committedInstType_0::FloatCvt            0      0.00%     74.59% # Class of committed instruction
system.switch_cpus3.commit.committedInstType_0::FloatMult            0      0.00%     74.59% # Class of committed instruction
system.switch_cpus3.commit.committedInstType_0::FloatMultAcc            0      0.00%     74.59% # Class of committed instruction
system.switch_cpus3.commit.committedInstType_0::FloatDiv            0      0.00%     74.59% # Class of committed instruction
system.switch_cpus3.commit.committedInstType_0::FloatMisc            0      0.00%     74.59% # Class of committed instruction
system.switch_cpus3.commit.committedInstType_0::FloatSqrt            0      0.00%     74.59% # Class of committed instruction
system.switch_cpus3.commit.committedInstType_0::SimdAdd            0      0.00%     74.59% # Class of committed instruction
system.switch_cpus3.commit.committedInstType_0::SimdAddAcc            0      0.00%     74.59% # Class of committed instruction
system.switch_cpus3.commit.committedInstType_0::SimdAlu            0      0.00%     74.59% # Class of committed instruction
system.switch_cpus3.commit.committedInstType_0::SimdCmp            0      0.00%     74.59% # Class of committed instruction
system.switch_cpus3.commit.committedInstType_0::SimdCvt            0      0.00%     74.59% # Class of committed instruction
system.switch_cpus3.commit.committedInstType_0::SimdMisc            0      0.00%     74.59% # Class of committed instruction
system.switch_cpus3.commit.committedInstType_0::SimdMult            0      0.00%     74.59% # Class of committed instruction
system.switch_cpus3.commit.committedInstType_0::SimdMultAcc            0      0.00%     74.59% # Class of committed instruction
system.switch_cpus3.commit.committedInstType_0::SimdShift            0      0.00%     74.59% # Class of committed instruction
system.switch_cpus3.commit.committedInstType_0::SimdShiftAcc            0      0.00%     74.59% # Class of committed instruction
system.switch_cpus3.commit.committedInstType_0::SimdDiv            0      0.00%     74.59% # Class of committed instruction
system.switch_cpus3.commit.committedInstType_0::SimdSqrt            0      0.00%     74.59% # Class of committed instruction
system.switch_cpus3.commit.committedInstType_0::SimdFloatAdd            0      0.00%     74.59% # Class of committed instruction
system.switch_cpus3.commit.committedInstType_0::SimdFloatAlu            0      0.00%     74.59% # Class of committed instruction
system.switch_cpus3.commit.committedInstType_0::SimdFloatCmp            0      0.00%     74.59% # Class of committed instruction
system.switch_cpus3.commit.committedInstType_0::SimdFloatCvt            0      0.00%     74.59% # Class of committed instruction
system.switch_cpus3.commit.committedInstType_0::SimdFloatDiv            0      0.00%     74.59% # Class of committed instruction
system.switch_cpus3.commit.committedInstType_0::SimdFloatMisc            0      0.00%     74.59% # Class of committed instruction
system.switch_cpus3.commit.committedInstType_0::SimdFloatMult            0      0.00%     74.59% # Class of committed instruction
system.switch_cpus3.commit.committedInstType_0::SimdFloatMultAcc            0      0.00%     74.59% # Class of committed instruction
system.switch_cpus3.commit.committedInstType_0::SimdFloatSqrt            0      0.00%     74.59% # Class of committed instruction
system.switch_cpus3.commit.committedInstType_0::SimdReduceAdd            0      0.00%     74.59% # Class of committed instruction
system.switch_cpus3.commit.committedInstType_0::SimdReduceAlu            0      0.00%     74.59% # Class of committed instruction
system.switch_cpus3.commit.committedInstType_0::SimdReduceCmp            0      0.00%     74.59% # Class of committed instruction
system.switch_cpus3.commit.committedInstType_0::SimdFloatReduceAdd            0      0.00%     74.59% # Class of committed instruction
system.switch_cpus3.commit.committedInstType_0::SimdFloatReduceCmp            0      0.00%     74.59% # Class of committed instruction
system.switch_cpus3.commit.committedInstType_0::SimdAes            0      0.00%     74.59% # Class of committed instruction
system.switch_cpus3.commit.committedInstType_0::SimdAesMix            0      0.00%     74.59% # Class of committed instruction
system.switch_cpus3.commit.committedInstType_0::SimdSha1Hash            0      0.00%     74.59% # Class of committed instruction
system.switch_cpus3.commit.committedInstType_0::SimdSha1Hash2            0      0.00%     74.59% # Class of committed instruction
system.switch_cpus3.commit.committedInstType_0::SimdSha256Hash            0      0.00%     74.59% # Class of committed instruction
system.switch_cpus3.commit.committedInstType_0::SimdSha256Hash2            0      0.00%     74.59% # Class of committed instruction
system.switch_cpus3.commit.committedInstType_0::SimdShaSigma2            0      0.00%     74.59% # Class of committed instruction
system.switch_cpus3.commit.committedInstType_0::SimdShaSigma3            0      0.00%     74.59% # Class of committed instruction
system.switch_cpus3.commit.committedInstType_0::SimdPredAlu            0      0.00%     74.59% # Class of committed instruction
system.switch_cpus3.commit.committedInstType_0::MemRead     85331389     19.84%     94.43% # Class of committed instruction
system.switch_cpus3.commit.committedInstType_0::MemWrite     23945877      5.57%    100.00% # Class of committed instruction
system.switch_cpus3.commit.committedInstType_0::FloatMemRead            0      0.00%    100.00% # Class of committed instruction
system.switch_cpus3.commit.committedInstType_0::FloatMemWrite            0      0.00%    100.00% # Class of committed instruction
system.switch_cpus3.commit.committedInstType_0::IprAccess            0      0.00%    100.00% # Class of committed instruction
system.switch_cpus3.commit.committedInstType_0::InstPrefetch            0      0.00%    100.00% # Class of committed instruction
system.switch_cpus3.commit.committedInstType_0::total    430027939                       # Class of committed instruction
system.switch_cpus3.commit.commitEligibleSamples     30249320                       # number cycles where commit BW limit reached
system.switch_cpus3.decode.idleCycles        18163704                       # Number of cycles decode is idle
system.switch_cpus3.decode.blockedCycles    243721728                       # Number of cycles decode is blocked
system.switch_cpus3.decode.runCycles        116398636                       # Number of cycles decode is running
system.switch_cpus3.decode.unblockCycles     16315165                       # Number of cycles decode is unblocking
system.switch_cpus3.decode.squashCycles       5782153                       # Number of cycles decode is squashing
system.switch_cpus3.decode.branchResolved     46869518                       # Number of times decode resolved a  branch
system.switch_cpus3.decode.branchMispred           91                       # Number of times decode detected a branch misprediction
system.switch_cpus3.decode.decodedInsts     876038531                       # Number of instructions handled by decode
system.switch_cpus3.decode.squashedInsts          596                       # Number of squashed instructions handled by decode
system.switch_cpus3.dtb.rdAccesses          135834924                       # TLB accesses on read requests
system.switch_cpus3.dtb.wrAccesses           35812202                       # TLB accesses on write requests
system.switch_cpus3.dtb.rdMisses              1556374                       # TLB misses on read requests
system.switch_cpus3.dtb.wrMisses               282676                       # TLB misses on write requests
system.switch_cpus3.dtb.walker.power_state.pwrStateResidencyTicks::UNDEFINED 16948480463424                       # Cumulative time (in ticks) in various power states
system.switch_cpus3.fetch.icacheStallCycles      4772439                       # Number of cycles fetch is stalled on an Icache miss
system.switch_cpus3.fetch.insts             546679632                       # Number of instructions fetch has processed
system.switch_cpus3.fetch.branches          144662187                       # Number of branches that fetch encountered
system.switch_cpus3.fetch.predictedBranches     89124827                       # Number of branches that fetch has predicted taken
system.switch_cpus3.fetch.cycles            389826713                       # Number of cycles fetch has run and was not squashing or blocked
system.switch_cpus3.fetch.squashCycles       11564482                       # Number of cycles fetch has spent squashing
system.switch_cpus3.fetch.cacheLines        108131246                       # Number of cache lines fetched
system.switch_cpus3.fetch.icacheSquashes          116                       # Number of outstanding Icache misses that were squashed
system.switch_cpus3.fetch.nisnDist::samples    400381393                       # Number of instructions fetched each cycle (Total)
system.switch_cpus3.fetch.nisnDist::mean     2.363644                       # Number of instructions fetched each cycle (Total)
system.switch_cpus3.fetch.nisnDist::stdev     3.133644                       # Number of instructions fetched each cycle (Total)
system.switch_cpus3.fetch.nisnDist::underflows            0      0.00%      0.00% # Number of instructions fetched each cycle (Total)
system.switch_cpus3.fetch.nisnDist::0       225659954     56.36%     56.36% # Number of instructions fetched each cycle (Total)
system.switch_cpus3.fetch.nisnDist::1        14040050      3.51%     59.87% # Number of instructions fetched each cycle (Total)
system.switch_cpus3.fetch.nisnDist::2        12278107      3.07%     62.93% # Number of instructions fetched each cycle (Total)
system.switch_cpus3.fetch.nisnDist::3        22069038      5.51%     68.45% # Number of instructions fetched each cycle (Total)
system.switch_cpus3.fetch.nisnDist::4        21720470      5.42%     73.87% # Number of instructions fetched each cycle (Total)
system.switch_cpus3.fetch.nisnDist::5        12317509      3.08%     76.95% # Number of instructions fetched each cycle (Total)
system.switch_cpus3.fetch.nisnDist::6        11775017      2.94%     79.89% # Number of instructions fetched each cycle (Total)
system.switch_cpus3.fetch.nisnDist::7        21733919      5.43%     85.32% # Number of instructions fetched each cycle (Total)
system.switch_cpus3.fetch.nisnDist::8        58787329     14.68%    100.00% # Number of instructions fetched each cycle (Total)
system.switch_cpus3.fetch.nisnDist::overflows            0      0.00%    100.00% # Number of instructions fetched each cycle (Total)
system.switch_cpus3.fetch.nisnDist::min_value            0                       # Number of instructions fetched each cycle (Total)
system.switch_cpus3.fetch.nisnDist::max_value            8                       # Number of instructions fetched each cycle (Total)
system.switch_cpus3.fetch.nisnDist::total    400381393                       # Number of instructions fetched each cycle (Total)
system.switch_cpus3.fetch.branchRate         0.361304                       # Number of branch fetches per cycle
system.switch_cpus3.fetch.rate               1.365371                       # Number of inst fetches per cycle
system.switch_cpus3.itb.rdAccesses                  0                       # TLB accesses on read requests
system.switch_cpus3.itb.wrAccesses          108131246                       # TLB accesses on write requests
system.switch_cpus3.itb.rdMisses                    0                       # TLB misses on read requests
system.switch_cpus3.itb.wrMisses                    5                       # TLB misses on write requests
system.switch_cpus3.itb.walker.power_state.pwrStateResidencyTicks::UNDEFINED 16948480463424                       # Cumulative time (in ticks) in various power states
system.switch_cpus3.lsq0.forwLoads           22691678                       # Number of loads that had data forwarded from stores
system.switch_cpus3.lsq0.squashedLoads       71068019                       # Number of loads squashed
system.switch_cpus3.lsq0.ignoredResponses       401728                       # Number of memory responses ignored because the instruction is squashed
system.switch_cpus3.lsq0.memOrderViolation        23021                       # Number of memory ordering violations
system.switch_cpus3.lsq0.squashedStores      16722763                       # Number of stores squashed
system.switch_cpus3.lsq0.rescheduledLoads         2351                       # Number of loads that were rescheduled
system.switch_cpus3.lsq0.blockedByCache           102                       # Number of times an access to memory failed due to the cache being blocked
system.switch_cpus3.power_state.pwrStateResidencyTicks::OFF 133329595275                       # Cumulative time (in ticks) in various power states
system.switch_cpus3.rename.squashCycles       5782153                       # Number of cycles rename is squashing
system.switch_cpus3.rename.idleCycles        25489613                       # Number of cycles rename is idle
system.switch_cpus3.rename.blockCycles      202065741                       # Number of cycles rename is blocking
system.switch_cpus3.rename.serializeStallCycles            0                       # count of cycles rename stalledfor serializing inst
system.switch_cpus3.rename.runCycles        123456971                       # Number of cycles rename is running
system.switch_cpus3.rename.unblockCycles     43586908                       # Number of cycles rename is unblocking
system.switch_cpus3.rename.renamedInsts     845327497                       # Number of instructions processed by rename
system.switch_cpus3.rename.ROBFullEvents      3927366                       # Number of times rename has blocked due to ROB full
system.switch_cpus3.rename.IQFullEvents      18896432                       # Number of times rename has blocked due to IQ full
system.switch_cpus3.rename.LQFullEvents      29142903                       # Number of times rename has blocked due to LQ full
system.switch_cpus3.rename.SQFullEvents        530200                       # Number of times rename has blocked due to SQ full
system.switch_cpus3.rename.renamedOperands    883195840                       # Number of destination operands rename has renamed
system.switch_cpus3.rename.lookups         2259206447                       # Number of register rename lookups that rename has made
system.switch_cpus3.rename.intLookups      1262630444                       # Number of integer rename lookups
system.switch_cpus3.rename.committedMaps    453628210                       # Number of HB maps that are committed
system.switch_cpus3.rename.undoneMaps       429567519                       # Number of HB maps that are undone due to squashing
system.switch_cpus3.rename.serializing              0                       # count of serializing insts renamed
system.switch_cpus3.rename.tempSerializing            0                       # count of temporary serializing insts renamed
system.switch_cpus3.rename.skidInsts         47530896                       # count of insts added to the skid buffer
system.switch_cpus3.rob.reads              1109391667                       # The number of ROB reads
system.switch_cpus3.rob.writes             1632018692                       # The number of ROB writes
system.switch_cpus3.thread0.numInsts        249655880                       # Number of Instructions committed
system.switch_cpus3.thread0.numOps          430027939                       # Number of Ops committed
system.switch_cpus3.thread0.numMemRefs              0                       # Number of Memory References
system.voltage_domain.voltage                       1                       # Voltage in Volts

---------- End Simulation Statistics   ----------
