Command line:
./runscript_pride.sh mix13 AE.BASELINE.4C 4 2017
Global frequency set at 1000000000000 ticks per second
DRAM config: RowsPerBank: 65536, BanksPerRank: 32, RanksPerChannel: 1
warn: Sockets disabled, not accepting gdb connections
warn: CoherentXBar system.cpu0.mmucache.mmubus has no snooping ports attached!
warn: CoherentXBar system.cpu1.mmucache.mmubus has no snooping ports attached!
warn: CoherentXBar system.cpu2.mmucache.mmubus has no snooping ports attached!
warn: CoherentXBar system.cpu3.mmucache.mmubus has no snooping ports attached!
warn: Checkpoints for file descriptors currently do not work.
warn: Checkpoints for file descriptors currently do not work.
warn: Checkpoints for file descriptors currently do not work.
warn: Checkpoints for file descriptors currently do not work.
gem5 Simulator System.  http://gem5.org
gem5 is copyrighted software; use the --copyright option for details.

gem5 version 20.1.0.5
gem5 compiled Jul 12 2024 12:42:38
gem5 started Jul 31 2024 03:21:19
gem5 executing on a07dda8b130c, pid 225953
command line: /home/user/PrIDE/performance/gem5/build/X86/gem5.opt --outdir=/home/user/PrIDE/performance/gem5/stats/pride_multiprogram_16GBmem_250Mn.SPEC2017.C4/AE.BASELINE.4C/mix13 /home/user/PrIDE/performance/gem5/configs/example/se_rq_spec_config_multicore.py --redirects /lib64=/home/utils/gcc-6.2.0/lib64 --benchmark=mix13 --benchmark_stdout=/home/user/PrIDE/performance/gem5/stats/pride_multiprogram_16GBmem_250Mn.SPEC2017.C4/AE.BASELINE.4C/mix13/mix13.out --benchmark_stderr=/home/user/PrIDE/performance/gem5/stats/pride_multiprogram_16GBmem_250Mn.SPEC2017.C4/AE.BASELINE.4C/mix13/mix13.err --spec-version=2017 --num-cpus=4 --mem-size=16GB --mem-type=DDR5_2400_32x4 --mem-ranks=1 --mem-channels=1 --checkpoint-dir=/home/user/PrIDE/performance/gem5/cpts-DDR5/multiprogram_16GBmem_25Bn.SPEC2017.C4/mix13-1-ref-x86 --checkpoint-restore=25000000000 --at-instruction --cpu-type DerivO3CPU --caches --l2cache --l1d_size=32kB --l1i_size=32kB --l2_size=256kB --l3_size=4MB --l1d_assoc=8 --l1i_assoc=8 --l2_assoc=16 --l3_assoc=16 --cpu-clock=3GHz --sys-clock=3GHz --maxinsts=250000000 --prog-interval=300Hz

info: Standard input is not a terminal, disabling listeners.
Benchmark- 0   lbm
Selected benchmark
--> lbm
CMD: ['/opt/spec2017/benchspec/CPU/519.lbm_r/run/run_base_refrate_gem5_se-m64.0000/lbm_r_base.gem5_se-m64', '3000', 'reference.dat', '0', '0', '/opt/spec2017/benchspec/CPU/519.lbm_r/run/run_base_refrate_gem5_se-m64.0000/100_100_130_ldc.of']
CWD: /opt/spec2017/benchspec/CPU/519.lbm_r/run/run_base_refrate_gem5_se-m64.0000/
Process stdout file: /home/user/PrIDE/performance/gem5/stats/pride_multiprogram_16GBmem_250Mn.SPEC2017.C4/AE.BASELINE.4C/mix13/mix13.out_0
Process stderr file: /home/user/PrIDE/performance/gem5/stats/pride_multiprogram_16GBmem_250Mn.SPEC2017.C4/AE.BASELINE.4C/mix13/mix13.err_0
Benchmark- 1   mcf
Selected benchmark
--> mcf
CMD: ['/opt/spec2017/benchspec/CPU/505.mcf_r/run/run_base_refrate_gem5_se-m64.0000/mcf_r_base.gem5_se-m64', '/opt/spec2017/benchspec/CPU/505.mcf_r/run/run_base_refrate_gem5_se-m64.0000/inp.in']
CWD: /opt/spec2017/benchspec/CPU/505.mcf_r/run/run_base_refrate_gem5_se-m64.0000/
Process stdout file: /home/user/PrIDE/performance/gem5/stats/pride_multiprogram_16GBmem_250Mn.SPEC2017.C4/AE.BASELINE.4C/mix13/mix13.out_1
Process stderr file: /home/user/PrIDE/performance/gem5/stats/pride_multiprogram_16GBmem_250Mn.SPEC2017.C4/AE.BASELINE.4C/mix13/mix13.err_1
Benchmark- 2   wrf
Selected benchmark
--> wrf
CMD: ['/opt/spec2017/benchspec/CPU/521.wrf_r/run/run_base_refrate_gem5_se-m64.0000/wrf_r_base.gem5_se-m64']
CWD: /opt/spec2017/benchspec/CPU/521.wrf_r/run/run_base_refrate_gem5_se-m64.0000/
Process stdout file: /home/user/PrIDE/performance/gem5/stats/pride_multiprogram_16GBmem_250Mn.SPEC2017.C4/AE.BASELINE.4C/mix13/mix13.out_2
Process stderr file: /home/user/PrIDE/performance/gem5/stats/pride_multiprogram_16GBmem_250Mn.SPEC2017.C4/AE.BASELINE.4C/mix13/mix13.err_2
Benchmark- 3   exchange2
Selected benchmark
--> exchange2
CMD: ['/opt/spec2017/benchspec/CPU/548.exchange2_r/run/run_base_refrate_gem5_se-m64.0000/exchange2_r_base.gem5_se-m64', '6']
CWD: /opt/spec2017/benchspec/CPU/548.exchange2_r/run/run_base_refrate_gem5_se-m64.0000/
Process stdout file: /home/user/PrIDE/performance/gem5/stats/pride_multiprogram_16GBmem_250Mn.SPEC2017.C4/AE.BASELINE.4C/mix13/mix13.out_3
Process stderr file: /home/user/PrIDE/performance/gem5/stats/pride_multiprogram_16GBmem_250Mn.SPEC2017.C4/AE.BASELINE.4C/mix13/mix13.err_3
Workload-0: 
['/opt/spec2017/benchspec/CPU/519.lbm_r/run/run_base_refrate_gem5_se-m64.0000/lbm_r_base.gem5_se-m64', '3000', 'reference.dat', '0', '0', '/opt/spec2017/benchspec/CPU/519.lbm_r/run/run_base_refrate_gem5_se-m64.0000/100_100_130_ldc.of']
Workload-1: 
['/opt/spec2017/benchspec/CPU/505.mcf_r/run/run_base_refrate_gem5_se-m64.0000/mcf_r_base.gem5_se-m64', '/opt/spec2017/benchspec/CPU/505.mcf_r/run/run_base_refrate_gem5_se-m64.0000/inp.in']
Workload-2: 
['/opt/spec2017/benchspec/CPU/521.wrf_r/run/run_base_refrate_gem5_se-m64.0000/wrf_r_base.gem5_se-m64']
Workload-3: 
['/opt/spec2017/benchspec/CPU/548.exchange2_r/run/run_base_refrate_gem5_se-m64.0000/exchange2_r_base.gem5_se-m64', '6']
defense_enable:  False  detector:  MG  mitigation:  RRS  threshold:  800
mg_entries:  1700
rrs_tuples:  3400 rrs_swap_delay:  2740ns rit_acc_delay:  1.25ns
Switch at curTick count:10000
warn: membus.master is deprecated. `master` is now called `mem_side_ports`
warn: No dot file generated. Please install pydot to generate the dot file and pdf.
info: Entering event queue @ 13719052595952.  Starting simulation...
info: Entering event queue @ 13719052605952.  Starting simulation...
warn: PowerState: Already in the requested power state, request ignored
Switched CPUS @ tick 13719052605952
switching cpus
**** REAL SIMULATION ****
info: Entering event queue @ 13719052606275.  Starting simulation...
13722385929285: Event_285: system.switch_cpus3 progress event, total committed:35459464, progress insts committed: 35459464, IPC: 003.5424
13722385929285: Event_284: system.switch_cpus2 progress event, total committed:7160601, progress insts committed: 7160601, IPC: 0.715344
13722385929285: Event_283: system.switch_cpus1 progress event, total committed:7128402, progress insts committed: 7128402, IPC: 0.712127
13722385929285: Event_282: system.switch_cpus0 progress event, total committed:8413037, progress insts committed: 8413037, IPC: 0.840462
13725719262618: Event_282: system.switch_cpus0 progress event, total committed:16008984, progress insts committed: 7595947, IPC: 0.758835
13725719262618: Event_283: system.switch_cpus1 progress event, total committed:14932049, progress insts committed: 7803647, IPC: 0.779584
13725719262618: Event_284: system.switch_cpus2 progress event, total committed:13090307, progress insts committed: 5929706, IPC: 0.592378
13725719262618: Event_285: system.switch_cpus3 progress event, total committed:72578256, progress insts committed: 37118792, IPC: 03.70817
13729052595951: Event_285: system.switch_cpus3 progress event, total committed:111319500, progress insts committed: 38741244, IPC: 03.87025
13729052595951: Event_284: system.switch_cpus2 progress event, total committed:19156055, progress insts committed: 6065748, IPC: 0.605968
13729052595951: Event_283: system.switch_cpus1 progress event, total committed:22590216, progress insts committed: 7658167, IPC: 0.765051
13729052595951: Event_282: system.switch_cpus0 progress event, total committed:22850901, progress insts committed: 6841917, IPC: 0.683508
13732385929284: Event_282: system.switch_cpus0 progress event, total committed:30291272, progress insts committed: 7440371, IPC: 0.743293
13732385929284: Event_283: system.switch_cpus1 progress event, total committed:29713787, progress insts committed: 7123571, IPC: 0.711645
13732385929284: Event_284: system.switch_cpus2 progress event, total committed:24943271, progress insts committed: 5787216, IPC: 0.578143
13732385929284: Event_285: system.switch_cpus3 progress event, total committed:152591987, progress insts committed: 41272487, IPC: 04.12312
13735719262617: Event_285: system.switch_cpus3 progress event, total committed:191627504, progress insts committed: 39035517, IPC: 03.89965
13735719262617: Event_284: system.switch_cpus2 progress event, total committed:30365732, progress insts committed: 5422461, IPC: 0.541704
13735719262617: Event_283: system.switch_cpus1 progress event, total committed:36350762, progress insts committed: 6636975, IPC: 0.663034
13735719262617: Event_282: system.switch_cpus0 progress event, total committed:37506536, progress insts committed: 7215264, IPC: 0.720805
13739052595950: Event_282: system.switch_cpus0 progress event, total committed:44724748, progress insts committed: 7218212, IPC: 0.721099
13739052595950: Event_283: system.switch_cpus1 progress event, total committed:44051116, progress insts committed: 7700354, IPC: 0.769265
13739052595950: Event_284: system.switch_cpus2 progress event, total committed:36896686, progress insts committed: 6530954, IPC: 0.652442
13739052595950: Event_285: system.switch_cpus3 progress event, total committed:228776480, progress insts committed: 37148976, IPC: 03.71118
warn: MOVNTDQ: Ignoring non-temporal hint, modeling as cacheable!
13742385929283: Event_285: system.switch_cpus3 progress event, total committed:267721538, progress insts committed: 38945058, IPC: 03.89061
13742385929283: Event_284: system.switch_cpus2 progress event, total committed:41238530, progress insts committed: 4341844, IPC: 00.43375
13742385929283: Event_283: system.switch_cpus1 progress event, total committed:51709489, progress insts committed: 7658373, IPC: 0.765071
13742385929283: Event_282: system.switch_cpus0 progress event, total committed:52520866, progress insts committed: 7796118, IPC: 0.778832
13745719262616: Event_282: system.switch_cpus0 progress event, total committed:59444406, progress insts committed: 6923540, IPC: 0.691662
13745719262616: Event_283: system.switch_cpus1 progress event, total committed:59501238, progress insts committed: 7791749, IPC: 0.778396
13745719262616: Event_284: system.switch_cpus2 progress event, total committed:43699888, progress insts committed: 2461358, IPC: 00.24589
13745719262616: Event_285: system.switch_cpus3 progress event, total committed:303631301, progress insts committed: 35909763, IPC: 03.58739
13749052595949: Event_285: system.switch_cpus3 progress event, total committed:343194941, progress insts committed: 39563640, IPC: 03.95241
13749052595949: Event_284: system.switch_cpus2 progress event, total committed:48184044, progress insts committed: 4484156, IPC: 0.447967
13749052595949: Event_283: system.switch_cpus1 progress event, total committed:65430684, progress insts committed: 5929446, IPC: 0.592352
13749052595949: Event_282: system.switch_cpus0 progress event, total committed:66794844, progress insts committed: 7350438, IPC: 0.734309
13752385929282: Event_282: system.switch_cpus0 progress event, total committed:73640178, progress insts committed: 6845334, IPC: 0.683849
13752385929282: Event_283: system.switch_cpus1 progress event, total committed:73161313, progress insts committed: 7730629, IPC: 00.77229
13752385929282: Event_284: system.switch_cpus2 progress event, total committed:52804915, progress insts committed: 4620871, IPC: 0.461625
13752385929282: Event_285: system.switch_cpus3 progress event, total committed:381771737, progress insts committed: 38576796, IPC: 03.85382
13755719262615: Event_285: system.switch_cpus3 progress event, total committed:417516649, progress insts committed: 35744912, IPC: 03.57092
13755719262615: Event_284: system.switch_cpus2 progress event, total committed:57395808, progress insts committed: 4590893, IPC: 00.45863
13755719262615: Event_283: system.switch_cpus1 progress event, total committed:80935626, progress insts committed: 7774313, IPC: 0.776654
13755719262615: Event_282: system.switch_cpus0 progress event, total committed:80903446, progress insts committed: 7263268, IPC: 000.7256
13759052595948: Event_282: system.switch_cpus0 progress event, total committed:88805902, progress insts committed: 7902456, IPC: 0.789455
13759052595948: Event_283: system.switch_cpus1 progress event, total committed:88345719, progress insts committed: 7410093, IPC: 0.740268
13759052595948: Event_284: system.switch_cpus2 progress event, total committed:62291909, progress insts committed: 4896101, IPC: 00.48912
13759052595948: Event_285: system.switch_cpus3 progress event, total committed:453556037, progress insts committed: 36039388, IPC: 03.60033
Exiting @ tick 13761323505396 because a thread reached the max instruction count
