
---------- Begin Simulation Statistics ----------
final_tick                               13761323505396                       # Number of ticks from beginning of simulation (restored from checkpoints and never reset)
host_inst_rate                                 128837                       # Simulator instruction rate (inst/s)
host_mem_usage                               17209472                       # Number of bytes of host memory used
host_op_rate                                   220570                       # Simulator op (including micro ops) rate (op/s)
host_seconds                                  3311.79                       # Real time elapsed on the host
host_tick_rate                               12763773                       # Simulator tick rate (ticks/s)
sim_freq                                 1000000000000                       # Frequency of simulated ticks
sim_insts                                   426679562                       # Number of instructions simulated
sim_ops                                     730479485                       # Number of ops (including micro ops) simulated
sim_seconds                                  0.042271                       # Number of seconds simulated
sim_ticks                                 42270909444                       # Number of ticks simulated
system.cpu0.committedInsts                         19                       # Number of instructions committed
system.cpu0.committedOps                           20                       # Number of ops (including micro ops) committed
system.cpu0.idle_fraction                           0                       # Percentage of idle cycles
system.cpu0.l2bus.snoop_filter.hit_multi_requests            0                       # Number of requests hitting in the snoop filter with multiple (>1) holders of the requested data.
system.cpu0.l2bus.snoop_filter.hit_multi_snoops            0                       # Number of snoops hitting in the snoop filter with multiple (>1) holders of the requested data.
system.cpu0.l2bus.snoop_filter.hit_single_requests      3015309                       # Number of requests hitting in the snoop filter with a single holder of the requested data.
system.cpu0.l2bus.snoop_filter.hit_single_snoops          241                       # Number of snoops hitting in the snoop filter with a single holder of the requested data.
system.cpu0.l2bus.snoop_filter.tot_requests      6031194                       # Total number of requests made to the snoop filter.
system.cpu0.l2bus.snoop_filter.tot_snoops          241                       # Total number of snoops made to the snoop filter.
system.cpu0.mmucache.mmubus.snoop_filter.hit_multi_requests            0                       # Number of requests hitting in the snoop filter with multiple (>1) holders of the requested data.
system.cpu0.mmucache.mmubus.snoop_filter.hit_multi_snoops            0                       # Number of snoops hitting in the snoop filter with multiple (>1) holders of the requested data.
system.cpu0.mmucache.mmubus.snoop_filter.hit_single_requests            0                       # Number of requests hitting in the snoop filter with a single holder of the requested data.
system.cpu0.mmucache.mmubus.snoop_filter.hit_single_snoops            0                       # Number of snoops hitting in the snoop filter with a single holder of the requested data.
system.cpu0.mmucache.mmubus.snoop_filter.tot_requests            0                       # Total number of requests made to the snoop filter.
system.cpu0.mmucache.mmubus.snoop_filter.tot_snoops            0                       # Total number of snoops made to the snoop filter.
system.cpu0.not_idle_fraction                       1                       # Percentage of non-idle cycles
system.cpu0.numCycles                              30                       # number of cpu cycles simulated
system.cpu0.numWorkItemsCompleted                   0                       # number of work items this cpu completed
system.cpu0.numWorkItemsStarted                     0                       # number of work items this cpu started
system.cpu0.num_busy_cycles                        30                       # Number of busy cycles
system.cpu0.num_conditional_control_insts            0                       # number of instructions that are conditional controls
system.cpu0.num_fp_alu_accesses                    20                       # Number of float alu accesses
system.cpu0.num_fp_insts                           20                       # number of float instructions
system.cpu0.num_fp_register_reads                  36                       # number of times the floating registers were read
system.cpu0.num_fp_register_writes                 19                       # number of times the floating registers were written
system.cpu0.num_func_calls                          0                       # number of times a function call or return occured
system.cpu0.num_idle_cycles                         0                       # Number of idle cycles
system.cpu0.num_int_alu_accesses                    8                       # Number of integer alu accesses
system.cpu0.num_int_insts                           8                       # number of integer instructions
system.cpu0.num_int_register_reads                 24                       # number of times the integer registers were read
system.cpu0.num_int_register_writes                 0                       # number of times the integer registers were written
system.cpu0.num_load_insts                          7                       # Number of load instructions
system.cpu0.num_mem_refs                            8                       # number of memory refs
system.cpu0.num_store_insts                         1                       # Number of store instructions
system.cpu0.num_vec_alu_accesses                    0                       # Number of vector alu accesses
system.cpu0.num_vec_insts                           0                       # number of vector instructions
system.cpu0.num_vec_register_reads                  0                       # number of times the vector registers were read
system.cpu0.num_vec_register_writes                 0                       # number of times the vector registers were written
system.cpu0.op_class::No_OpClass                    0      0.00%      0.00% # Class of executed instruction
system.cpu0.op_class::IntAlu                        1      5.00%      5.00% # Class of executed instruction
system.cpu0.op_class::IntMult                       0      0.00%      5.00% # Class of executed instruction
system.cpu0.op_class::IntDiv                        0      0.00%      5.00% # Class of executed instruction
system.cpu0.op_class::FloatAdd                      0      0.00%      5.00% # Class of executed instruction
system.cpu0.op_class::FloatCmp                      0      0.00%      5.00% # Class of executed instruction
system.cpu0.op_class::FloatCvt                      0      0.00%      5.00% # Class of executed instruction
system.cpu0.op_class::FloatMult                     0      0.00%      5.00% # Class of executed instruction
system.cpu0.op_class::FloatMultAcc                  0      0.00%      5.00% # Class of executed instruction
system.cpu0.op_class::FloatDiv                      0      0.00%      5.00% # Class of executed instruction
system.cpu0.op_class::FloatMisc                     0      0.00%      5.00% # Class of executed instruction
system.cpu0.op_class::FloatSqrt                     0      0.00%      5.00% # Class of executed instruction
system.cpu0.op_class::SimdAdd                       0      0.00%      5.00% # Class of executed instruction
system.cpu0.op_class::SimdAddAcc                    0      0.00%      5.00% # Class of executed instruction
system.cpu0.op_class::SimdAlu                       0      0.00%      5.00% # Class of executed instruction
system.cpu0.op_class::SimdCmp                       0      0.00%      5.00% # Class of executed instruction
system.cpu0.op_class::SimdCvt                       0      0.00%      5.00% # Class of executed instruction
system.cpu0.op_class::SimdMisc                      0      0.00%      5.00% # Class of executed instruction
system.cpu0.op_class::SimdMult                      0      0.00%      5.00% # Class of executed instruction
system.cpu0.op_class::SimdMultAcc                   0      0.00%      5.00% # Class of executed instruction
system.cpu0.op_class::SimdShift                     0      0.00%      5.00% # Class of executed instruction
system.cpu0.op_class::SimdShiftAcc                  0      0.00%      5.00% # Class of executed instruction
system.cpu0.op_class::SimdDiv                       0      0.00%      5.00% # Class of executed instruction
system.cpu0.op_class::SimdSqrt                      0      0.00%      5.00% # Class of executed instruction
system.cpu0.op_class::SimdFloatAdd                  5     25.00%     30.00% # Class of executed instruction
system.cpu0.op_class::SimdFloatAlu                  0      0.00%     30.00% # Class of executed instruction
system.cpu0.op_class::SimdFloatCmp                  0      0.00%     30.00% # Class of executed instruction
system.cpu0.op_class::SimdFloatCvt                  0      0.00%     30.00% # Class of executed instruction
system.cpu0.op_class::SimdFloatDiv                  0      0.00%     30.00% # Class of executed instruction
system.cpu0.op_class::SimdFloatMisc                 0      0.00%     30.00% # Class of executed instruction
system.cpu0.op_class::SimdFloatMult                 6     30.00%     60.00% # Class of executed instruction
system.cpu0.op_class::SimdFloatMultAcc              0      0.00%     60.00% # Class of executed instruction
system.cpu0.op_class::SimdFloatSqrt                 0      0.00%     60.00% # Class of executed instruction
system.cpu0.op_class::SimdReduceAdd                 0      0.00%     60.00% # Class of executed instruction
system.cpu0.op_class::SimdReduceAlu                 0      0.00%     60.00% # Class of executed instruction
system.cpu0.op_class::SimdReduceCmp                 0      0.00%     60.00% # Class of executed instruction
system.cpu0.op_class::SimdFloatReduceAdd            0      0.00%     60.00% # Class of executed instruction
system.cpu0.op_class::SimdFloatReduceCmp            0      0.00%     60.00% # Class of executed instruction
system.cpu0.op_class::SimdAes                       0      0.00%     60.00% # Class of executed instruction
system.cpu0.op_class::SimdAesMix                    0      0.00%     60.00% # Class of executed instruction
system.cpu0.op_class::SimdSha1Hash                  0      0.00%     60.00% # Class of executed instruction
system.cpu0.op_class::SimdSha1Hash2                 0      0.00%     60.00% # Class of executed instruction
system.cpu0.op_class::SimdSha256Hash                0      0.00%     60.00% # Class of executed instruction
system.cpu0.op_class::SimdSha256Hash2               0      0.00%     60.00% # Class of executed instruction
system.cpu0.op_class::SimdShaSigma2                 0      0.00%     60.00% # Class of executed instruction
system.cpu0.op_class::SimdShaSigma3                 0      0.00%     60.00% # Class of executed instruction
system.cpu0.op_class::SimdPredAlu                   0      0.00%     60.00% # Class of executed instruction
system.cpu0.op_class::MemRead                       0      0.00%     60.00% # Class of executed instruction
system.cpu0.op_class::MemWrite                      0      0.00%     60.00% # Class of executed instruction
system.cpu0.op_class::FloatMemRead                  7     35.00%     95.00% # Class of executed instruction
system.cpu0.op_class::FloatMemWrite                 1      5.00%    100.00% # Class of executed instruction
system.cpu0.op_class::IprAccess                     0      0.00%    100.00% # Class of executed instruction
system.cpu0.op_class::InstPrefetch                  0      0.00%    100.00% # Class of executed instruction
system.cpu0.op_class::total                        20                       # Class of executed instruction
system.cpu0.workload.numSyscalls                    0                       # Number of system calls
system.cpu1.Branches                                1                       # Number of branches fetched
system.cpu1.committedInsts                         17                       # Number of instructions committed
system.cpu1.committedOps                           25                       # Number of ops (including micro ops) committed
system.cpu1.idle_fraction                           0                       # Percentage of idle cycles
system.cpu1.l2bus.snoop_filter.hit_multi_requests          123                       # Number of requests hitting in the snoop filter with multiple (>1) holders of the requested data.
system.cpu1.l2bus.snoop_filter.hit_multi_snoops           48                       # Number of snoops hitting in the snoop filter with multiple (>1) holders of the requested data.
system.cpu1.l2bus.snoop_filter.hit_single_requests      1791432                       # Number of requests hitting in the snoop filter with a single holder of the requested data.
system.cpu1.l2bus.snoop_filter.hit_single_snoops          223                       # Number of snoops hitting in the snoop filter with a single holder of the requested data.
system.cpu1.l2bus.snoop_filter.tot_requests      3570449                       # Total number of requests made to the snoop filter.
system.cpu1.l2bus.snoop_filter.tot_snoops          271                       # Total number of snoops made to the snoop filter.
system.cpu1.mmucache.mmubus.snoop_filter.hit_multi_requests            0                       # Number of requests hitting in the snoop filter with multiple (>1) holders of the requested data.
system.cpu1.mmucache.mmubus.snoop_filter.hit_multi_snoops            0                       # Number of snoops hitting in the snoop filter with multiple (>1) holders of the requested data.
system.cpu1.mmucache.mmubus.snoop_filter.hit_single_requests            0                       # Number of requests hitting in the snoop filter with a single holder of the requested data.
system.cpu1.mmucache.mmubus.snoop_filter.hit_single_snoops            0                       # Number of snoops hitting in the snoop filter with a single holder of the requested data.
system.cpu1.mmucache.mmubus.snoop_filter.tot_requests            0                       # Total number of requests made to the snoop filter.
system.cpu1.mmucache.mmubus.snoop_filter.tot_snoops            0                       # Total number of snoops made to the snoop filter.
system.cpu1.not_idle_fraction                       1                       # Percentage of non-idle cycles
system.cpu1.numCycles                              31                       # number of cpu cycles simulated
system.cpu1.numWorkItemsCompleted                   0                       # number of work items this cpu completed
system.cpu1.numWorkItemsStarted                     0                       # number of work items this cpu started
system.cpu1.num_busy_cycles                        31                       # Number of busy cycles
system.cpu1.num_cc_register_reads                  20                       # number of times the CC registers were read
system.cpu1.num_cc_register_writes                 12                       # number of times the CC registers were written
system.cpu1.num_conditional_control_insts            1                       # number of instructions that are conditional controls
system.cpu1.num_fp_alu_accesses                     0                       # Number of float alu accesses
system.cpu1.num_fp_insts                            0                       # number of float instructions
system.cpu1.num_fp_register_reads                   0                       # number of times the floating registers were read
system.cpu1.num_fp_register_writes                  0                       # number of times the floating registers were written
system.cpu1.num_func_calls                          0                       # number of times a function call or return occured
system.cpu1.num_idle_cycles                         0                       # Number of idle cycles
system.cpu1.num_int_alu_accesses                   25                       # Number of integer alu accesses
system.cpu1.num_int_insts                          25                       # number of integer instructions
system.cpu1.num_int_register_reads                 59                       # number of times the integer registers were read
system.cpu1.num_int_register_writes                17                       # number of times the integer registers were written
system.cpu1.num_load_insts                          2                       # Number of load instructions
system.cpu1.num_mem_refs                            9                       # number of memory refs
system.cpu1.num_store_insts                         7                       # Number of store instructions
system.cpu1.num_vec_alu_accesses                    0                       # Number of vector alu accesses
system.cpu1.num_vec_insts                           0                       # number of vector instructions
system.cpu1.num_vec_register_reads                  0                       # number of times the vector registers were read
system.cpu1.num_vec_register_writes                 0                       # number of times the vector registers were written
system.cpu1.op_class::No_OpClass                    0      0.00%      0.00% # Class of executed instruction
system.cpu1.op_class::IntAlu                       16     64.00%     64.00% # Class of executed instruction
system.cpu1.op_class::IntMult                       0      0.00%     64.00% # Class of executed instruction
system.cpu1.op_class::IntDiv                        0      0.00%     64.00% # Class of executed instruction
system.cpu1.op_class::FloatAdd                      0      0.00%     64.00% # Class of executed instruction
system.cpu1.op_class::FloatCmp                      0      0.00%     64.00% # Class of executed instruction
system.cpu1.op_class::FloatCvt                      0      0.00%     64.00% # Class of executed instruction
system.cpu1.op_class::FloatMult                     0      0.00%     64.00% # Class of executed instruction
system.cpu1.op_class::FloatMultAcc                  0      0.00%     64.00% # Class of executed instruction
system.cpu1.op_class::FloatDiv                      0      0.00%     64.00% # Class of executed instruction
system.cpu1.op_class::FloatMisc                     0      0.00%     64.00% # Class of executed instruction
system.cpu1.op_class::FloatSqrt                     0      0.00%     64.00% # Class of executed instruction
system.cpu1.op_class::SimdAdd                       0      0.00%     64.00% # Class of executed instruction
system.cpu1.op_class::SimdAddAcc                    0      0.00%     64.00% # Class of executed instruction
system.cpu1.op_class::SimdAlu                       0      0.00%     64.00% # Class of executed instruction
system.cpu1.op_class::SimdCmp                       0      0.00%     64.00% # Class of executed instruction
system.cpu1.op_class::SimdCvt                       0      0.00%     64.00% # Class of executed instruction
system.cpu1.op_class::SimdMisc                      0      0.00%     64.00% # Class of executed instruction
system.cpu1.op_class::SimdMult                      0      0.00%     64.00% # Class of executed instruction
system.cpu1.op_class::SimdMultAcc                   0      0.00%     64.00% # Class of executed instruction
system.cpu1.op_class::SimdShift                     0      0.00%     64.00% # Class of executed instruction
system.cpu1.op_class::SimdShiftAcc                  0      0.00%     64.00% # Class of executed instruction
system.cpu1.op_class::SimdDiv                       0      0.00%     64.00% # Class of executed instruction
system.cpu1.op_class::SimdSqrt                      0      0.00%     64.00% # Class of executed instruction
system.cpu1.op_class::SimdFloatAdd                  0      0.00%     64.00% # Class of executed instruction
system.cpu1.op_class::SimdFloatAlu                  0      0.00%     64.00% # Class of executed instruction
system.cpu1.op_class::SimdFloatCmp                  0      0.00%     64.00% # Class of executed instruction
system.cpu1.op_class::SimdFloatCvt                  0      0.00%     64.00% # Class of executed instruction
system.cpu1.op_class::SimdFloatDiv                  0      0.00%     64.00% # Class of executed instruction
system.cpu1.op_class::SimdFloatMisc                 0      0.00%     64.00% # Class of executed instruction
system.cpu1.op_class::SimdFloatMult                 0      0.00%     64.00% # Class of executed instruction
system.cpu1.op_class::SimdFloatMultAcc              0      0.00%     64.00% # Class of executed instruction
system.cpu1.op_class::SimdFloatSqrt                 0      0.00%     64.00% # Class of executed instruction
system.cpu1.op_class::SimdReduceAdd                 0      0.00%     64.00% # Class of executed instruction
system.cpu1.op_class::SimdReduceAlu                 0      0.00%     64.00% # Class of executed instruction
system.cpu1.op_class::SimdReduceCmp                 0      0.00%     64.00% # Class of executed instruction
system.cpu1.op_class::SimdFloatReduceAdd            0      0.00%     64.00% # Class of executed instruction
system.cpu1.op_class::SimdFloatReduceCmp            0      0.00%     64.00% # Class of executed instruction
system.cpu1.op_class::SimdAes                       0      0.00%     64.00% # Class of executed instruction
system.cpu1.op_class::SimdAesMix                    0      0.00%     64.00% # Class of executed instruction
system.cpu1.op_class::SimdSha1Hash                  0      0.00%     64.00% # Class of executed instruction
system.cpu1.op_class::SimdSha1Hash2                 0      0.00%     64.00% # Class of executed instruction
system.cpu1.op_class::SimdSha256Hash                0      0.00%     64.00% # Class of executed instruction
system.cpu1.op_class::SimdSha256Hash2               0      0.00%     64.00% # Class of executed instruction
system.cpu1.op_class::SimdShaSigma2                 0      0.00%     64.00% # Class of executed instruction
system.cpu1.op_class::SimdShaSigma3                 0      0.00%     64.00% # Class of executed instruction
system.cpu1.op_class::SimdPredAlu                   0      0.00%     64.00% # Class of executed instruction
system.cpu1.op_class::MemRead                       2      8.00%     72.00% # Class of executed instruction
system.cpu1.op_class::MemWrite                      7     28.00%    100.00% # Class of executed instruction
system.cpu1.op_class::FloatMemRead                  0      0.00%    100.00% # Class of executed instruction
system.cpu1.op_class::FloatMemWrite                 0      0.00%    100.00% # Class of executed instruction
system.cpu1.op_class::IprAccess                     0      0.00%    100.00% # Class of executed instruction
system.cpu1.op_class::InstPrefetch                  0      0.00%    100.00% # Class of executed instruction
system.cpu1.op_class::total                        25                       # Class of executed instruction
system.cpu1.workload.numSyscalls                    0                       # Number of system calls
system.cpu2.committedInsts                         11                       # Number of instructions committed
system.cpu2.committedOps                           24                       # Number of ops (including micro ops) committed
system.cpu2.idle_fraction                           0                       # Percentage of idle cycles
system.cpu2.l2bus.snoop_filter.hit_multi_requests            3                       # Number of requests hitting in the snoop filter with multiple (>1) holders of the requested data.
system.cpu2.l2bus.snoop_filter.hit_multi_snoops            0                       # Number of snoops hitting in the snoop filter with multiple (>1) holders of the requested data.
system.cpu2.l2bus.snoop_filter.hit_single_requests       601820                       # Number of requests hitting in the snoop filter with a single holder of the requested data.
system.cpu2.l2bus.snoop_filter.hit_single_snoops          803                       # Number of snoops hitting in the snoop filter with a single holder of the requested data.
system.cpu2.l2bus.snoop_filter.tot_requests      1203580                       # Total number of requests made to the snoop filter.
system.cpu2.l2bus.snoop_filter.tot_snoops          803                       # Total number of snoops made to the snoop filter.
system.cpu2.mmucache.mmubus.snoop_filter.hit_multi_requests            0                       # Number of requests hitting in the snoop filter with multiple (>1) holders of the requested data.
system.cpu2.mmucache.mmubus.snoop_filter.hit_multi_snoops            0                       # Number of snoops hitting in the snoop filter with multiple (>1) holders of the requested data.
system.cpu2.mmucache.mmubus.snoop_filter.hit_single_requests            0                       # Number of requests hitting in the snoop filter with a single holder of the requested data.
system.cpu2.mmucache.mmubus.snoop_filter.hit_single_snoops            0                       # Number of snoops hitting in the snoop filter with a single holder of the requested data.
system.cpu2.mmucache.mmubus.snoop_filter.tot_requests            0                       # Total number of requests made to the snoop filter.
system.cpu2.mmucache.mmubus.snoop_filter.tot_snoops            0                       # Total number of snoops made to the snoop filter.
system.cpu2.not_idle_fraction                       1                       # Percentage of non-idle cycles
system.cpu2.numCycles                              30                       # number of cpu cycles simulated
system.cpu2.numWorkItemsCompleted                   0                       # number of work items this cpu completed
system.cpu2.numWorkItemsStarted                     0                       # number of work items this cpu started
system.cpu2.num_busy_cycles                        30                       # Number of busy cycles
system.cpu2.num_cc_register_writes                 12                       # number of times the CC registers were written
system.cpu2.num_conditional_control_insts            0                       # number of instructions that are conditional controls
system.cpu2.num_fp_alu_accesses                    12                       # Number of float alu accesses
system.cpu2.num_fp_insts                           12                       # number of float instructions
system.cpu2.num_fp_register_reads                   6                       # number of times the floating registers were read
system.cpu2.num_fp_register_writes                 12                       # number of times the floating registers were written
system.cpu2.num_func_calls                          0                       # number of times a function call or return occured
system.cpu2.num_idle_cycles                         0                       # Number of idle cycles
system.cpu2.num_int_alu_accesses                   16                       # Number of integer alu accesses
system.cpu2.num_int_insts                          16                       # number of integer instructions
system.cpu2.num_int_register_reads                 24                       # number of times the integer registers were read
system.cpu2.num_int_register_writes                12                       # number of times the integer registers were written
system.cpu2.num_load_insts                          4                       # Number of load instructions
system.cpu2.num_mem_refs                            4                       # number of memory refs
system.cpu2.num_store_insts                         0                       # Number of store instructions
system.cpu2.num_vec_alu_accesses                    0                       # Number of vector alu accesses
system.cpu2.num_vec_insts                           0                       # number of vector instructions
system.cpu2.num_vec_register_reads                  0                       # number of times the vector registers were read
system.cpu2.num_vec_register_writes                 0                       # number of times the vector registers were written
system.cpu2.op_class::No_OpClass                    0      0.00%      0.00% # Class of executed instruction
system.cpu2.op_class::IntAlu                       12     50.00%     50.00% # Class of executed instruction
system.cpu2.op_class::IntMult                       0      0.00%     50.00% # Class of executed instruction
system.cpu2.op_class::IntDiv                        0      0.00%     50.00% # Class of executed instruction
system.cpu2.op_class::FloatAdd                      6     25.00%     75.00% # Class of executed instruction
system.cpu2.op_class::FloatCmp                      0      0.00%     75.00% # Class of executed instruction
system.cpu2.op_class::FloatCvt                      0      0.00%     75.00% # Class of executed instruction
system.cpu2.op_class::FloatMult                     0      0.00%     75.00% # Class of executed instruction
system.cpu2.op_class::FloatMultAcc                  0      0.00%     75.00% # Class of executed instruction
system.cpu2.op_class::FloatDiv                      0      0.00%     75.00% # Class of executed instruction
system.cpu2.op_class::FloatMisc                     0      0.00%     75.00% # Class of executed instruction
system.cpu2.op_class::FloatSqrt                     0      0.00%     75.00% # Class of executed instruction
system.cpu2.op_class::SimdAdd                       0      0.00%     75.00% # Class of executed instruction
system.cpu2.op_class::SimdAddAcc                    0      0.00%     75.00% # Class of executed instruction
system.cpu2.op_class::SimdAlu                       0      0.00%     75.00% # Class of executed instruction
system.cpu2.op_class::SimdCmp                       0      0.00%     75.00% # Class of executed instruction
system.cpu2.op_class::SimdCvt                       0      0.00%     75.00% # Class of executed instruction
system.cpu2.op_class::SimdMisc                      0      0.00%     75.00% # Class of executed instruction
system.cpu2.op_class::SimdMult                      0      0.00%     75.00% # Class of executed instruction
system.cpu2.op_class::SimdMultAcc                   0      0.00%     75.00% # Class of executed instruction
system.cpu2.op_class::SimdShift                     0      0.00%     75.00% # Class of executed instruction
system.cpu2.op_class::SimdShiftAcc                  0      0.00%     75.00% # Class of executed instruction
system.cpu2.op_class::SimdDiv                       0      0.00%     75.00% # Class of executed instruction
system.cpu2.op_class::SimdSqrt                      0      0.00%     75.00% # Class of executed instruction
system.cpu2.op_class::SimdFloatAdd                  2      8.33%     83.33% # Class of executed instruction
system.cpu2.op_class::SimdFloatAlu                  0      0.00%     83.33% # Class of executed instruction
system.cpu2.op_class::SimdFloatCmp                  0      0.00%     83.33% # Class of executed instruction
system.cpu2.op_class::SimdFloatCvt                  0      0.00%     83.33% # Class of executed instruction
system.cpu2.op_class::SimdFloatDiv                  0      0.00%     83.33% # Class of executed instruction
system.cpu2.op_class::SimdFloatMisc                 0      0.00%     83.33% # Class of executed instruction
system.cpu2.op_class::SimdFloatMult                 0      0.00%     83.33% # Class of executed instruction
system.cpu2.op_class::SimdFloatMultAcc              0      0.00%     83.33% # Class of executed instruction
system.cpu2.op_class::SimdFloatSqrt                 0      0.00%     83.33% # Class of executed instruction
system.cpu2.op_class::SimdReduceAdd                 0      0.00%     83.33% # Class of executed instruction
system.cpu2.op_class::SimdReduceAlu                 0      0.00%     83.33% # Class of executed instruction
system.cpu2.op_class::SimdReduceCmp                 0      0.00%     83.33% # Class of executed instruction
system.cpu2.op_class::SimdFloatReduceAdd            0      0.00%     83.33% # Class of executed instruction
system.cpu2.op_class::SimdFloatReduceCmp            0      0.00%     83.33% # Class of executed instruction
system.cpu2.op_class::SimdAes                       0      0.00%     83.33% # Class of executed instruction
system.cpu2.op_class::SimdAesMix                    0      0.00%     83.33% # Class of executed instruction
system.cpu2.op_class::SimdSha1Hash                  0      0.00%     83.33% # Class of executed instruction
system.cpu2.op_class::SimdSha1Hash2                 0      0.00%     83.33% # Class of executed instruction
system.cpu2.op_class::SimdSha256Hash                0      0.00%     83.33% # Class of executed instruction
system.cpu2.op_class::SimdSha256Hash2               0      0.00%     83.33% # Class of executed instruction
system.cpu2.op_class::SimdShaSigma2                 0      0.00%     83.33% # Class of executed instruction
system.cpu2.op_class::SimdShaSigma3                 0      0.00%     83.33% # Class of executed instruction
system.cpu2.op_class::SimdPredAlu                   0      0.00%     83.33% # Class of executed instruction
system.cpu2.op_class::MemRead                       0      0.00%     83.33% # Class of executed instruction
system.cpu2.op_class::MemWrite                      0      0.00%     83.33% # Class of executed instruction
system.cpu2.op_class::FloatMemRead                  4     16.67%    100.00% # Class of executed instruction
system.cpu2.op_class::FloatMemWrite                 0      0.00%    100.00% # Class of executed instruction
system.cpu2.op_class::IprAccess                     0      0.00%    100.00% # Class of executed instruction
system.cpu2.op_class::InstPrefetch                  0      0.00%    100.00% # Class of executed instruction
system.cpu2.op_class::total                        24                       # Class of executed instruction
system.cpu2.workload.numSyscalls                    0                       # Number of system calls
system.cpu3.Branches                                1                       # Number of branches fetched
system.cpu3.committedInsts                         14                       # Number of instructions committed
system.cpu3.committedOps                           23                       # Number of ops (including micro ops) committed
system.cpu3.idle_fraction                           0                       # Percentage of idle cycles
system.cpu3.l2bus.snoop_filter.hit_multi_requests            3                       # Number of requests hitting in the snoop filter with multiple (>1) holders of the requested data.
system.cpu3.l2bus.snoop_filter.hit_multi_snoops            0                       # Number of snoops hitting in the snoop filter with multiple (>1) holders of the requested data.
system.cpu3.l2bus.snoop_filter.hit_single_requests        40461                       # Number of requests hitting in the snoop filter with a single holder of the requested data.
system.cpu3.l2bus.snoop_filter.hit_single_snoops            0                       # Number of snoops hitting in the snoop filter with a single holder of the requested data.
system.cpu3.l2bus.snoop_filter.tot_requests        81750                       # Total number of requests made to the snoop filter.
system.cpu3.l2bus.snoop_filter.tot_snoops            0                       # Total number of snoops made to the snoop filter.
system.cpu3.mmucache.mmubus.snoop_filter.hit_multi_requests            0                       # Number of requests hitting in the snoop filter with multiple (>1) holders of the requested data.
system.cpu3.mmucache.mmubus.snoop_filter.hit_multi_snoops            0                       # Number of snoops hitting in the snoop filter with multiple (>1) holders of the requested data.
system.cpu3.mmucache.mmubus.snoop_filter.hit_single_requests            0                       # Number of requests hitting in the snoop filter with a single holder of the requested data.
system.cpu3.mmucache.mmubus.snoop_filter.hit_single_snoops            0                       # Number of snoops hitting in the snoop filter with a single holder of the requested data.
system.cpu3.mmucache.mmubus.snoop_filter.tot_requests            0                       # Total number of requests made to the snoop filter.
system.cpu3.mmucache.mmubus.snoop_filter.tot_snoops            0                       # Total number of snoops made to the snoop filter.
system.cpu3.not_idle_fraction                       1                       # Percentage of non-idle cycles
system.cpu3.numCycles                              31                       # number of cpu cycles simulated
system.cpu3.numWorkItemsCompleted                   0                       # number of work items this cpu completed
system.cpu3.numWorkItemsStarted                     0                       # number of work items this cpu started
system.cpu3.num_busy_cycles                        31                       # Number of busy cycles
system.cpu3.num_conditional_control_insts            0                       # number of instructions that are conditional controls
system.cpu3.num_fp_alu_accesses                     0                       # Number of float alu accesses
system.cpu3.num_fp_insts                            0                       # number of float instructions
system.cpu3.num_fp_register_reads                   0                       # number of times the floating registers were read
system.cpu3.num_fp_register_writes                  0                       # number of times the floating registers were written
system.cpu3.num_func_calls                          1                       # number of times a function call or return occured
system.cpu3.num_idle_cycles                         0                       # Number of idle cycles
system.cpu3.num_int_alu_accesses                   23                       # Number of integer alu accesses
system.cpu3.num_int_insts                          23                       # number of integer instructions
system.cpu3.num_int_register_reads                 63                       # number of times the integer registers were read
system.cpu3.num_int_register_writes                11                       # number of times the integer registers were written
system.cpu3.num_load_insts                          1                       # Number of load instructions
system.cpu3.num_mem_refs                           12                       # number of memory refs
system.cpu3.num_store_insts                        11                       # Number of store instructions
system.cpu3.num_vec_alu_accesses                    0                       # Number of vector alu accesses
system.cpu3.num_vec_insts                           0                       # number of vector instructions
system.cpu3.num_vec_register_reads                  0                       # number of times the vector registers were read
system.cpu3.num_vec_register_writes                 0                       # number of times the vector registers were written
system.cpu3.op_class::No_OpClass                    0      0.00%      0.00% # Class of executed instruction
system.cpu3.op_class::IntAlu                       11     47.83%     47.83% # Class of executed instruction
system.cpu3.op_class::IntMult                       0      0.00%     47.83% # Class of executed instruction
system.cpu3.op_class::IntDiv                        0      0.00%     47.83% # Class of executed instruction
system.cpu3.op_class::FloatAdd                      0      0.00%     47.83% # Class of executed instruction
system.cpu3.op_class::FloatCmp                      0      0.00%     47.83% # Class of executed instruction
system.cpu3.op_class::FloatCvt                      0      0.00%     47.83% # Class of executed instruction
system.cpu3.op_class::FloatMult                     0      0.00%     47.83% # Class of executed instruction
system.cpu3.op_class::FloatMultAcc                  0      0.00%     47.83% # Class of executed instruction
system.cpu3.op_class::FloatDiv                      0      0.00%     47.83% # Class of executed instruction
system.cpu3.op_class::FloatMisc                     0      0.00%     47.83% # Class of executed instruction
system.cpu3.op_class::FloatSqrt                     0      0.00%     47.83% # Class of executed instruction
system.cpu3.op_class::SimdAdd                       0      0.00%     47.83% # Class of executed instruction
system.cpu3.op_class::SimdAddAcc                    0      0.00%     47.83% # Class of executed instruction
system.cpu3.op_class::SimdAlu                       0      0.00%     47.83% # Class of executed instruction
system.cpu3.op_class::SimdCmp                       0      0.00%     47.83% # Class of executed instruction
system.cpu3.op_class::SimdCvt                       0      0.00%     47.83% # Class of executed instruction
system.cpu3.op_class::SimdMisc                      0      0.00%     47.83% # Class of executed instruction
system.cpu3.op_class::SimdMult                      0      0.00%     47.83% # Class of executed instruction
system.cpu3.op_class::SimdMultAcc                   0      0.00%     47.83% # Class of executed instruction
system.cpu3.op_class::SimdShift                     0      0.00%     47.83% # Class of executed instruction
system.cpu3.op_class::SimdShiftAcc                  0      0.00%     47.83% # Class of executed instruction
system.cpu3.op_class::SimdDiv                       0      0.00%     47.83% # Class of executed instruction
system.cpu3.op_class::SimdSqrt                      0      0.00%     47.83% # Class of executed instruction
system.cpu3.op_class::SimdFloatAdd                  0      0.00%     47.83% # Class of executed instruction
system.cpu3.op_class::SimdFloatAlu                  0      0.00%     47.83% # Class of executed instruction
system.cpu3.op_class::SimdFloatCmp                  0      0.00%     47.83% # Class of executed instruction
system.cpu3.op_class::SimdFloatCvt                  0      0.00%     47.83% # Class of executed instruction
system.cpu3.op_class::SimdFloatDiv                  0      0.00%     47.83% # Class of executed instruction
system.cpu3.op_class::SimdFloatMisc                 0      0.00%     47.83% # Class of executed instruction
system.cpu3.op_class::SimdFloatMult                 0      0.00%     47.83% # Class of executed instruction
system.cpu3.op_class::SimdFloatMultAcc              0      0.00%     47.83% # Class of executed instruction
system.cpu3.op_class::SimdFloatSqrt                 0      0.00%     47.83% # Class of executed instruction
system.cpu3.op_class::SimdReduceAdd                 0      0.00%     47.83% # Class of executed instruction
system.cpu3.op_class::SimdReduceAlu                 0      0.00%     47.83% # Class of executed instruction
system.cpu3.op_class::SimdReduceCmp                 0      0.00%     47.83% # Class of executed instruction
system.cpu3.op_class::SimdFloatReduceAdd            0      0.00%     47.83% # Class of executed instruction
system.cpu3.op_class::SimdFloatReduceCmp            0      0.00%     47.83% # Class of executed instruction
system.cpu3.op_class::SimdAes                       0      0.00%     47.83% # Class of executed instruction
system.cpu3.op_class::SimdAesMix                    0      0.00%     47.83% # Class of executed instruction
system.cpu3.op_class::SimdSha1Hash                  0      0.00%     47.83% # Class of executed instruction
system.cpu3.op_class::SimdSha1Hash2                 0      0.00%     47.83% # Class of executed instruction
system.cpu3.op_class::SimdSha256Hash                0      0.00%     47.83% # Class of executed instruction
system.cpu3.op_class::SimdSha256Hash2               0      0.00%     47.83% # Class of executed instruction
system.cpu3.op_class::SimdShaSigma2                 0      0.00%     47.83% # Class of executed instruction
system.cpu3.op_class::SimdShaSigma3                 0      0.00%     47.83% # Class of executed instruction
system.cpu3.op_class::SimdPredAlu                   0      0.00%     47.83% # Class of executed instruction
system.cpu3.op_class::MemRead                       1      4.35%     52.17% # Class of executed instruction
system.cpu3.op_class::MemWrite                     11     47.83%    100.00% # Class of executed instruction
system.cpu3.op_class::FloatMemRead                  0      0.00%    100.00% # Class of executed instruction
system.cpu3.op_class::FloatMemWrite                 0      0.00%    100.00% # Class of executed instruction
system.cpu3.op_class::IprAccess                     0      0.00%    100.00% # Class of executed instruction
system.cpu3.op_class::InstPrefetch                  0      0.00%    100.00% # Class of executed instruction
system.cpu3.op_class::total                        23                       # Class of executed instruction
system.cpu3.workload.numSyscalls                    0                       # Number of system calls
system.l3bus.snoop_filter.hit_multi_requests            0                       # Number of requests hitting in the snoop filter with multiple (>1) holders of the requested data.
system.l3bus.snoop_filter.hit_multi_snoops            0                       # Number of snoops hitting in the snoop filter with multiple (>1) holders of the requested data.
system.l3bus.snoop_filter.hit_single_requests      3025451                       # Number of requests hitting in the snoop filter with a single holder of the requested data.
system.l3bus.snoop_filter.hit_single_snoops            0                       # Number of snoops hitting in the snoop filter with a single holder of the requested data.
system.l3bus.snoop_filter.tot_requests        6073648                       # Total number of requests made to the snoop filter.
system.l3bus.snoop_filter.tot_snoops                0                       # Total number of snoops made to the snoop filter.
system.membus.snoop_filter.hit_multi_requests            0                       # Number of requests hitting in the snoop filter with multiple (>1) holders of the requested data.
system.membus.snoop_filter.hit_multi_snoops            0                       # Number of snoops hitting in the snoop filter with multiple (>1) holders of the requested data.
system.membus.snoop_filter.hit_single_requests      2460969                       # Number of requests hitting in the snoop filter with a single holder of the requested data.
system.membus.snoop_filter.hit_single_snoops            0                       # Number of snoops hitting in the snoop filter with a single holder of the requested data.
system.membus.snoop_filter.tot_requests       5001160                       # Total number of requests made to the snoop filter.
system.membus.snoop_filter.tot_snoops               0                       # Total number of snoops made to the snoop filter.
system.switch_cpus0.cc_regfile_reads          3065882                       # number of cc regfile reads
system.switch_cpus0.cc_regfile_writes         1450869                       # number of cc regfile writes
system.switch_cpus0.committedInsts           85340011                       # Number of Instructions Simulated
system.switch_cpus0.committedOps             93818144                       # Number of Ops (including micro ops) Simulated
system.switch_cpus0.cpi                      1.487457                       # CPI: Cycles Per Instruction
system.switch_cpus0.cpi_total                1.487457                       # CPI: Total CPI of All Threads
system.switch_cpus0.fp_regfile_reads        156765273                       # number of floating regfile reads
system.switch_cpus0.fp_regfile_writes        70727144                       # number of floating regfile writes
system.switch_cpus0.idleCycles                   7994                       # Total number of cycles that the CPU has spent unscheduled due to idling
system.switch_cpus0.iew.branchMispredicts         1846                       # Number of branch mispredicts detected at execute
system.switch_cpus0.iew.exec_branches          541197                       # Number of branches executed
system.switch_cpus0.iew.exec_nop                    0                       # number of nop insts executed
system.switch_cpus0.iew.exec_rate            0.882725                       # Inst execution rate
system.switch_cpus0.iew.exec_refs            55042708                       # number of memory reference insts executed
system.switch_cpus0.iew.exec_stores          10497278                       # Number of stores executed
system.switch_cpus0.iew.exec_swp                    0                       # number of swp insts executed
system.switch_cpus0.iew.iewBlockCycles       26349377                       # Number of cycles IEW is blocking
system.switch_cpus0.iew.iewDispLoadInsts     26372582                       # Number of dispatched load instructions
system.switch_cpus0.iew.iewDispNonSpecInsts            0                       # Number of dispatched non-speculative instructions
system.switch_cpus0.iew.iewDispSquashedInsts          138                       # Number of squashed instructions skipped by dispatch
system.switch_cpus0.iew.iewDispStoreInsts     10512962                       # Number of dispatched store instructions
system.switch_cpus0.iew.iewDispatchedInsts     93903483                       # Number of instructions dispatched to IQ
system.switch_cpus0.iew.iewExecLoadInsts     44545430                       # Number of load instructions executed
system.switch_cpus0.iew.iewExecSquashedInsts         1019                       # Number of squashed instructions skipped in execute
system.switch_cpus0.iew.iewExecutedInsts    112052815                       # Number of executed instructions
system.switch_cpus0.iew.iewIQFullEvents        240581                       # Number of times the IQ has become full, causing a stall
system.switch_cpus0.iew.iewIdleCycles               0                       # Number of cycles IEW is idle
system.switch_cpus0.iew.iewLSQFullEvents     21436902                       # Number of times the LSQ has become full, causing a stall
system.switch_cpus0.iew.iewSquashCycles          2197                       # Number of cycles IEW is squashing
system.switch_cpus0.iew.iewUnblockCycles     21714611                       # Number of cycles IEW is unblocking
system.switch_cpus0.iew.memOrderViolationEvents          714                       # Number of memory order violations
system.switch_cpus0.iew.predictedNotTakenIncorrect         1828                       # Number of branches that were predicted not taken incorrectly
system.switch_cpus0.iew.predictedTakenIncorrect           18                       # Number of branches that were predicted taken incorrectly
system.switch_cpus0.iew.wb_consumers        129241724                       # num instructions consuming a value
system.switch_cpus0.iew.wb_count             93860180                       # cumulative count of insts written-back
system.switch_cpus0.iew.wb_fanout            0.534290                       # average fanout of values written-back
system.switch_cpus0.iew.wb_producers         69052543                       # num instructions producing a value
system.switch_cpus0.iew.wb_rate              0.739408                       # insts written-back per cycle
system.switch_cpus0.iew.wb_sent              93860829                       # cumulative count of insts sent to commit
system.switch_cpus0.int_regfile_reads       122069405                       # number of integer regfile reads
system.switch_cpus0.int_regfile_writes       12095304                       # number of integer regfile writes
system.switch_cpus0.ipc                      0.672288                       # IPC: Instructions Per Cycle
system.switch_cpus0.ipc_total                0.672288                       # IPC: Total IPC of All Threads
system.switch_cpus0.iq.FU_type_0::No_OpClass            0      0.00%      0.00% # Type of FU issued
system.switch_cpus0.iq.FU_type_0::IntAlu     13639000     12.17%     12.17% # Type of FU issued
system.switch_cpus0.iq.FU_type_0::IntMult            0      0.00%     12.17% # Type of FU issued
system.switch_cpus0.iq.FU_type_0::IntDiv            0      0.00%     12.17% # Type of FU issued
system.switch_cpus0.iq.FU_type_0::FloatAdd            0      0.00%     12.17% # Type of FU issued
system.switch_cpus0.iq.FU_type_0::FloatCmp            0      0.00%     12.17% # Type of FU issued
system.switch_cpus0.iq.FU_type_0::FloatCvt            0      0.00%     12.17% # Type of FU issued
system.switch_cpus0.iq.FU_type_0::FloatMult            0      0.00%     12.17% # Type of FU issued
system.switch_cpus0.iq.FU_type_0::FloatMultAcc            0      0.00%     12.17% # Type of FU issued
system.switch_cpus0.iq.FU_type_0::FloatDiv            0      0.00%     12.17% # Type of FU issued
system.switch_cpus0.iq.FU_type_0::FloatMisc            0      0.00%     12.17% # Type of FU issued
system.switch_cpus0.iq.FU_type_0::FloatSqrt            0      0.00%     12.17% # Type of FU issued
system.switch_cpus0.iq.FU_type_0::SimdAdd            0      0.00%     12.17% # Type of FU issued
system.switch_cpus0.iq.FU_type_0::SimdAddAcc            0      0.00%     12.17% # Type of FU issued
system.switch_cpus0.iq.FU_type_0::SimdAlu           15      0.00%     12.17% # Type of FU issued
system.switch_cpus0.iq.FU_type_0::SimdCmp            0      0.00%     12.17% # Type of FU issued
system.switch_cpus0.iq.FU_type_0::SimdCvt            0      0.00%     12.17% # Type of FU issued
system.switch_cpus0.iq.FU_type_0::SimdMisc            0      0.00%     12.17% # Type of FU issued
system.switch_cpus0.iq.FU_type_0::SimdMult            0      0.00%     12.17% # Type of FU issued
system.switch_cpus0.iq.FU_type_0::SimdMultAcc            0      0.00%     12.17% # Type of FU issued
system.switch_cpus0.iq.FU_type_0::SimdShift            0      0.00%     12.17% # Type of FU issued
system.switch_cpus0.iq.FU_type_0::SimdShiftAcc            0      0.00%     12.17% # Type of FU issued
system.switch_cpus0.iq.FU_type_0::SimdDiv            0      0.00%     12.17% # Type of FU issued
system.switch_cpus0.iq.FU_type_0::SimdSqrt            0      0.00%     12.17% # Type of FU issued
system.switch_cpus0.iq.FU_type_0::SimdFloatAdd     26690941     23.82%     35.99% # Type of FU issued
system.switch_cpus0.iq.FU_type_0::SimdFloatAlu            0      0.00%     35.99% # Type of FU issued
system.switch_cpus0.iq.FU_type_0::SimdFloatCmp            0      0.00%     35.99% # Type of FU issued
system.switch_cpus0.iq.FU_type_0::SimdFloatCvt            0      0.00%     35.99% # Type of FU issued
system.switch_cpus0.iq.FU_type_0::SimdFloatDiv       526740      0.47%     36.46% # Type of FU issued
system.switch_cpus0.iq.FU_type_0::SimdFloatMisc            0      0.00%     36.46% # Type of FU issued
system.switch_cpus0.iq.FU_type_0::SimdFloatMult     16153461     14.42%     50.88% # Type of FU issued
system.switch_cpus0.iq.FU_type_0::SimdFloatMultAcc            0      0.00%     50.88% # Type of FU issued
system.switch_cpus0.iq.FU_type_0::SimdFloatSqrt            0      0.00%     50.88% # Type of FU issued
system.switch_cpus0.iq.FU_type_0::SimdReduceAdd            0      0.00%     50.88% # Type of FU issued
system.switch_cpus0.iq.FU_type_0::SimdReduceAlu            0      0.00%     50.88% # Type of FU issued
system.switch_cpus0.iq.FU_type_0::SimdReduceCmp            0      0.00%     50.88% # Type of FU issued
system.switch_cpus0.iq.FU_type_0::SimdFloatReduceAdd            0      0.00%     50.88% # Type of FU issued
system.switch_cpus0.iq.FU_type_0::SimdFloatReduceCmp            0      0.00%     50.88% # Type of FU issued
system.switch_cpus0.iq.FU_type_0::SimdAes            0      0.00%     50.88% # Type of FU issued
system.switch_cpus0.iq.FU_type_0::SimdAesMix            0      0.00%     50.88% # Type of FU issued
system.switch_cpus0.iq.FU_type_0::SimdSha1Hash            0      0.00%     50.88% # Type of FU issued
system.switch_cpus0.iq.FU_type_0::SimdSha1Hash2            0      0.00%     50.88% # Type of FU issued
system.switch_cpus0.iq.FU_type_0::SimdSha256Hash            0      0.00%     50.88% # Type of FU issued
system.switch_cpus0.iq.FU_type_0::SimdSha256Hash2            0      0.00%     50.88% # Type of FU issued
system.switch_cpus0.iq.FU_type_0::SimdShaSigma2            0      0.00%     50.88% # Type of FU issued
system.switch_cpus0.iq.FU_type_0::SimdShaSigma3            0      0.00%     50.88% # Type of FU issued
system.switch_cpus0.iq.FU_type_0::SimdPredAlu            0      0.00%     50.88% # Type of FU issued
system.switch_cpus0.iq.FU_type_0::MemRead     15048392     13.43%     64.31% # Type of FU issued
system.switch_cpus0.iq.FU_type_0::MemWrite            8      0.00%     64.31% # Type of FU issued
system.switch_cpus0.iq.FU_type_0::FloatMemRead     29497997     26.32%     90.63% # Type of FU issued
system.switch_cpus0.iq.FU_type_0::FloatMemWrite     10497283      9.37%    100.00% # Type of FU issued
system.switch_cpus0.iq.FU_type_0::IprAccess            0      0.00%    100.00% # Type of FU issued
system.switch_cpus0.iq.FU_type_0::InstPrefetch            0      0.00%    100.00% # Type of FU issued
system.switch_cpus0.iq.FU_type_0::total     112053837                       # Type of FU issued
system.switch_cpus0.iq.fp_alu_accesses      101306556                       # Number of floating point alu accesses
system.switch_cpus0.iq.fp_inst_queue_reads    192750629                       # Number of floating instruction queue reads
system.switch_cpus0.iq.fp_inst_queue_wakeup_accesses     81224152                       # Number of floating instruction queue wakeup accesses
system.switch_cpus0.iq.fp_inst_queue_writes     81314829                       # Number of floating instruction queue writes
system.switch_cpus0.iq.fu_busy_cnt           12690730                       # FU busy when requested
system.switch_cpus0.iq.fu_busy_rate          0.113256                       # FU busy rate (busy events/executed inst)
system.switch_cpus0.iq.fu_full::No_OpClass            0      0.00%      0.00% # attempts to use FU when none available
system.switch_cpus0.iq.fu_full::IntAlu         171800      1.35%      1.35% # attempts to use FU when none available
system.switch_cpus0.iq.fu_full::IntMult             0      0.00%      1.35% # attempts to use FU when none available
system.switch_cpus0.iq.fu_full::IntDiv              0      0.00%      1.35% # attempts to use FU when none available
system.switch_cpus0.iq.fu_full::FloatAdd            0      0.00%      1.35% # attempts to use FU when none available
system.switch_cpus0.iq.fu_full::FloatCmp            0      0.00%      1.35% # attempts to use FU when none available
system.switch_cpus0.iq.fu_full::FloatCvt            0      0.00%      1.35% # attempts to use FU when none available
system.switch_cpus0.iq.fu_full::FloatMult            0      0.00%      1.35% # attempts to use FU when none available
system.switch_cpus0.iq.fu_full::FloatMultAcc            0      0.00%      1.35% # attempts to use FU when none available
system.switch_cpus0.iq.fu_full::FloatDiv            0      0.00%      1.35% # attempts to use FU when none available
system.switch_cpus0.iq.fu_full::FloatMisc            0      0.00%      1.35% # attempts to use FU when none available
system.switch_cpus0.iq.fu_full::FloatSqrt            0      0.00%      1.35% # attempts to use FU when none available
system.switch_cpus0.iq.fu_full::SimdAdd             0      0.00%      1.35% # attempts to use FU when none available
system.switch_cpus0.iq.fu_full::SimdAddAcc            0      0.00%      1.35% # attempts to use FU when none available
system.switch_cpus0.iq.fu_full::SimdAlu             0      0.00%      1.35% # attempts to use FU when none available
system.switch_cpus0.iq.fu_full::SimdCmp             0      0.00%      1.35% # attempts to use FU when none available
system.switch_cpus0.iq.fu_full::SimdCvt             0      0.00%      1.35% # attempts to use FU when none available
system.switch_cpus0.iq.fu_full::SimdMisc            0      0.00%      1.35% # attempts to use FU when none available
system.switch_cpus0.iq.fu_full::SimdMult            0      0.00%      1.35% # attempts to use FU when none available
system.switch_cpus0.iq.fu_full::SimdMultAcc            0      0.00%      1.35% # attempts to use FU when none available
system.switch_cpus0.iq.fu_full::SimdShift            0      0.00%      1.35% # attempts to use FU when none available
system.switch_cpus0.iq.fu_full::SimdShiftAcc            0      0.00%      1.35% # attempts to use FU when none available
system.switch_cpus0.iq.fu_full::SimdDiv             0      0.00%      1.35% # attempts to use FU when none available
system.switch_cpus0.iq.fu_full::SimdSqrt            0      0.00%      1.35% # attempts to use FU when none available
system.switch_cpus0.iq.fu_full::SimdFloatAdd      2053862     16.18%     17.54% # attempts to use FU when none available
system.switch_cpus0.iq.fu_full::SimdFloatAlu            0      0.00%     17.54% # attempts to use FU when none available
system.switch_cpus0.iq.fu_full::SimdFloatCmp            0      0.00%     17.54% # attempts to use FU when none available
system.switch_cpus0.iq.fu_full::SimdFloatCvt            0      0.00%     17.54% # attempts to use FU when none available
system.switch_cpus0.iq.fu_full::SimdFloatDiv            0      0.00%     17.54% # attempts to use FU when none available
system.switch_cpus0.iq.fu_full::SimdFloatMisc            0      0.00%     17.54% # attempts to use FU when none available
system.switch_cpus0.iq.fu_full::SimdFloatMult      1712457     13.49%     31.03% # attempts to use FU when none available
system.switch_cpus0.iq.fu_full::SimdFloatMultAcc            0      0.00%     31.03% # attempts to use FU when none available
system.switch_cpus0.iq.fu_full::SimdFloatSqrt            0      0.00%     31.03% # attempts to use FU when none available
system.switch_cpus0.iq.fu_full::SimdReduceAdd            0      0.00%     31.03% # attempts to use FU when none available
system.switch_cpus0.iq.fu_full::SimdReduceAlu            0      0.00%     31.03% # attempts to use FU when none available
system.switch_cpus0.iq.fu_full::SimdReduceCmp            0      0.00%     31.03% # attempts to use FU when none available
system.switch_cpus0.iq.fu_full::SimdFloatReduceAdd            0      0.00%     31.03% # attempts to use FU when none available
system.switch_cpus0.iq.fu_full::SimdFloatReduceCmp            0      0.00%     31.03% # attempts to use FU when none available
system.switch_cpus0.iq.fu_full::SimdAes             0      0.00%     31.03% # attempts to use FU when none available
system.switch_cpus0.iq.fu_full::SimdAesMix            0      0.00%     31.03% # attempts to use FU when none available
system.switch_cpus0.iq.fu_full::SimdSha1Hash            0      0.00%     31.03% # attempts to use FU when none available
system.switch_cpus0.iq.fu_full::SimdSha1Hash2            0      0.00%     31.03% # attempts to use FU when none available
system.switch_cpus0.iq.fu_full::SimdSha256Hash            0      0.00%     31.03% # attempts to use FU when none available
system.switch_cpus0.iq.fu_full::SimdSha256Hash2            0      0.00%     31.03% # attempts to use FU when none available
system.switch_cpus0.iq.fu_full::SimdShaSigma2            0      0.00%     31.03% # attempts to use FU when none available
system.switch_cpus0.iq.fu_full::SimdShaSigma3            0      0.00%     31.03% # attempts to use FU when none available
system.switch_cpus0.iq.fu_full::SimdPredAlu            0      0.00%     31.03% # attempts to use FU when none available
system.switch_cpus0.iq.fu_full::MemRead       2827916     22.28%     53.31% # attempts to use FU when none available
system.switch_cpus0.iq.fu_full::MemWrite            0      0.00%     53.31% # attempts to use FU when none available
system.switch_cpus0.iq.fu_full::FloatMemRead      5200897     40.98%     94.30% # attempts to use FU when none available
system.switch_cpus0.iq.fu_full::FloatMemWrite       723798      5.70%    100.00% # attempts to use FU when none available
system.switch_cpus0.iq.fu_full::IprAccess            0      0.00%    100.00% # attempts to use FU when none available
system.switch_cpus0.iq.fu_full::InstPrefetch            0      0.00%    100.00% # attempts to use FU when none available
system.switch_cpus0.iq.int_alu_accesses      23438011                       # Number of integer alu accesses
system.switch_cpus0.iq.int_inst_queue_reads    170980278                       # Number of integer instruction queue reads
system.switch_cpus0.iq.int_inst_queue_wakeup_accesses     12636028                       # Number of integer instruction queue wakeup accesses
system.switch_cpus0.iq.int_inst_queue_writes     12674658                       # Number of integer instruction queue writes
system.switch_cpus0.iq.iqInstsAdded          93903483                       # Number of instructions added to the IQ (excludes non-spec)
system.switch_cpus0.iq.iqInstsIssued        112053837                       # Number of instructions issued
system.switch_cpus0.iq.iqSquashedInstsExamined        85290                       # Number of squashed instructions iterated over during squash; mainly for profiling
system.switch_cpus0.iq.iqSquashedInstsIssued          863                       # Number of squashed instructions issued
system.switch_cpus0.iq.iqSquashedOperandsExamined       145192                       # Number of squashed operands that are examined and possibly removed from graph
system.switch_cpus0.iq.issued_per_cycle::samples    126931643                       # Number of insts issued each cycle
system.switch_cpus0.iq.issued_per_cycle::mean     0.882789                       # Number of insts issued each cycle
system.switch_cpus0.iq.issued_per_cycle::stdev     1.996142                       # Number of insts issued each cycle
system.switch_cpus0.iq.issued_per_cycle::underflows            0      0.00%      0.00% # Number of insts issued each cycle
system.switch_cpus0.iq.issued_per_cycle::0    101581631     80.03%     80.03% # Number of insts issued each cycle
system.switch_cpus0.iq.issued_per_cycle::1      2709118      2.13%     82.16% # Number of insts issued each cycle
system.switch_cpus0.iq.issued_per_cycle::2      2753565      2.17%     84.33% # Number of insts issued each cycle
system.switch_cpus0.iq.issued_per_cycle::3      2269554      1.79%     86.12% # Number of insts issued each cycle
system.switch_cpus0.iq.issued_per_cycle::4      6057605      4.77%     90.89% # Number of insts issued each cycle
system.switch_cpus0.iq.issued_per_cycle::5      3854533      3.04%     93.93% # Number of insts issued each cycle
system.switch_cpus0.iq.issued_per_cycle::6      2941628      2.32%     96.25% # Number of insts issued each cycle
system.switch_cpus0.iq.issued_per_cycle::7      2235998      1.76%     98.01% # Number of insts issued each cycle
system.switch_cpus0.iq.issued_per_cycle::8      2528011      1.99%    100.00% # Number of insts issued each cycle
system.switch_cpus0.iq.issued_per_cycle::overflows            0      0.00%    100.00% # Number of insts issued each cycle
system.switch_cpus0.iq.issued_per_cycle::min_value            0                       # Number of insts issued each cycle
system.switch_cpus0.iq.issued_per_cycle::max_value            8                       # Number of insts issued each cycle
system.switch_cpus0.iq.issued_per_cycle::total    126931643                       # Number of insts issued each cycle
system.switch_cpus0.iq.rate                  0.882733                       # Inst issue rate
system.switch_cpus0.iq.vec_alu_accesses             0                       # Number of vector alu accesses
system.switch_cpus0.iq.vec_inst_queue_reads            0                       # Number of vector instruction queue reads
system.switch_cpus0.iq.vec_inst_queue_wakeup_accesses            0                       # Number of vector instruction queue wakeup accesses
system.switch_cpus0.iq.vec_inst_queue_writes            0                       # Number of vector instruction queue writes
system.switch_cpus0.memDep0.conflictingLoads       898013                       # Number of conflicting loads.
system.switch_cpus0.memDep0.conflictingStores       245548                       # Number of conflicting stores.
system.switch_cpus0.memDep0.insertedLoads     26372582                       # Number of loads inserted to the mem dependence unit.
system.switch_cpus0.memDep0.insertedStores     10512962                       # Number of stores inserted to the mem dependence unit.
system.switch_cpus0.misc_regfile_reads       57881249                       # number of misc regfile reads
system.switch_cpus0.misc_regfile_writes             1                       # number of misc regfile writes
system.switch_cpus0.numCycles               126939637                       # number of cpu cycles simulated
system.switch_cpus0.numWorkItemsCompleted            0                       # number of work items this cpu completed
system.switch_cpus0.numWorkItemsStarted             0                       # number of work items this cpu started
system.switch_cpus0.timesIdled                     40                       # Number of times that the entire CPU went into an idle state and unscheduled itself
system.switch_cpus1.cc_regfile_reads         81379463                       # number of cc regfile reads
system.switch_cpus1.cc_regfile_writes        33091902                       # number of cc regfile writes
system.switch_cpus1.committedInsts           53852868                       # Number of Instructions Simulated
system.switch_cpus1.committedOps             92784477                       # Number of Ops (including micro ops) Simulated
system.switch_cpus1.cpi                      2.357156                       # CPI: Cycles Per Instruction
system.switch_cpus1.cpi_total                2.357156                       # CPI: Total CPI of All Threads
system.switch_cpus1.fp_regfile_writes              56                       # number of floating regfile writes
system.switch_cpus1.idleCycles                  13811                       # Total number of cycles that the CPU has spent unscheduled due to idling
system.switch_cpus1.iew.branchMispredicts      1259527                       # Number of branch mispredicts detected at execute
system.switch_cpus1.iew.exec_branches        21513478                       # Number of branches executed
system.switch_cpus1.iew.exec_nop                    0                       # number of nop insts executed
system.switch_cpus1.iew.exec_rate            1.164821                       # Inst execution rate
system.switch_cpus1.iew.exec_refs            36749103                       # number of memory reference insts executed
system.switch_cpus1.iew.exec_stores           7661475                       # Number of stores executed
system.switch_cpus1.iew.exec_swp                    0                       # number of swp insts executed
system.switch_cpus1.iew.iewBlockCycles       69121749                       # Number of cycles IEW is blocking
system.switch_cpus1.iew.iewDispLoadInsts     33372260                       # Number of dispatched load instructions
system.switch_cpus1.iew.iewDispNonSpecInsts            0                       # Number of dispatched non-speculative instructions
system.switch_cpus1.iew.iewDispSquashedInsts        45195                       # Number of squashed instructions skipped by dispatch
system.switch_cpus1.iew.iewDispStoreInsts      8628919                       # Number of dispatched store instructions
system.switch_cpus1.iew.iewDispatchedInsts    168583223                       # Number of instructions dispatched to IQ
system.switch_cpus1.iew.iewExecLoadInsts     29087628                       # Number of load instructions executed
system.switch_cpus1.iew.iewExecSquashedInsts      3793635                       # Number of squashed instructions skipped in execute
system.switch_cpus1.iew.iewExecutedInsts    147861994                       # Number of executed instructions
system.switch_cpus1.iew.iewIQFullEvents        169782                       # Number of times the IQ has become full, causing a stall
system.switch_cpus1.iew.iewIdleCycles               0                       # Number of cycles IEW is idle
system.switch_cpus1.iew.iewLSQFullEvents      6148774                       # Number of times the LSQ has become full, causing a stall
system.switch_cpus1.iew.iewSquashCycles       1218097                       # Number of cycles IEW is squashing
system.switch_cpus1.iew.iewUnblockCycles      6465789                       # Number of cycles IEW is unblocking
system.switch_cpus1.iew.memOrderViolationEvents         3117                       # Number of memory order violations
system.switch_cpus1.iew.predictedNotTakenIncorrect       688958                       # Number of branches that were predicted not taken incorrectly
system.switch_cpus1.iew.predictedTakenIncorrect       570569                       # Number of branches that were predicted taken incorrectly
system.switch_cpus1.iew.wb_consumers        154420172                       # num instructions consuming a value
system.switch_cpus1.iew.wb_count            146086343                       # cumulative count of insts written-back
system.switch_cpus1.iew.wb_fanout            0.655387                       # average fanout of values written-back
system.switch_cpus1.iew.wb_producers        101204951                       # num instructions producing a value
system.switch_cpus1.iew.wb_rate              1.150833                       # insts written-back per cycle
system.switch_cpus1.iew.wb_sent             147083718                       # cumulative count of insts sent to commit
system.switch_cpus1.int_regfile_reads       211832647                       # number of integer regfile reads
system.switch_cpus1.int_regfile_writes      118760866                       # number of integer regfile writes
system.switch_cpus1.ipc                      0.424240                       # IPC: Instructions Per Cycle
system.switch_cpus1.ipc_total                0.424240                       # IPC: Total IPC of All Threads
system.switch_cpus1.iq.FU_type_0::No_OpClass        62562      0.04%      0.04% # Type of FU issued
system.switch_cpus1.iq.FU_type_0::IntAlu    112713327     74.32%     74.36% # Type of FU issued
system.switch_cpus1.iq.FU_type_0::IntMult       153759      0.10%     74.46% # Type of FU issued
system.switch_cpus1.iq.FU_type_0::IntDiv       388442      0.26%     74.72% # Type of FU issued
system.switch_cpus1.iq.FU_type_0::FloatAdd            0      0.00%     74.72% # Type of FU issued
system.switch_cpus1.iq.FU_type_0::FloatCmp            0      0.00%     74.72% # Type of FU issued
system.switch_cpus1.iq.FU_type_0::FloatCvt            0      0.00%     74.72% # Type of FU issued
system.switch_cpus1.iq.FU_type_0::FloatMult            0      0.00%     74.72% # Type of FU issued
system.switch_cpus1.iq.FU_type_0::FloatMultAcc            0      0.00%     74.72% # Type of FU issued
system.switch_cpus1.iq.FU_type_0::FloatDiv            0      0.00%     74.72% # Type of FU issued
system.switch_cpus1.iq.FU_type_0::FloatMisc            0      0.00%     74.72% # Type of FU issued
system.switch_cpus1.iq.FU_type_0::FloatSqrt            0      0.00%     74.72% # Type of FU issued
system.switch_cpus1.iq.FU_type_0::SimdAdd            0      0.00%     74.72% # Type of FU issued
system.switch_cpus1.iq.FU_type_0::SimdAddAcc            0      0.00%     74.72% # Type of FU issued
system.switch_cpus1.iq.FU_type_0::SimdAlu            0      0.00%     74.72% # Type of FU issued
system.switch_cpus1.iq.FU_type_0::SimdCmp            0      0.00%     74.72% # Type of FU issued
system.switch_cpus1.iq.FU_type_0::SimdCvt            0      0.00%     74.72% # Type of FU issued
system.switch_cpus1.iq.FU_type_0::SimdMisc            0      0.00%     74.72% # Type of FU issued
system.switch_cpus1.iq.FU_type_0::SimdMult            0      0.00%     74.72% # Type of FU issued
system.switch_cpus1.iq.FU_type_0::SimdMultAcc            0      0.00%     74.72% # Type of FU issued
system.switch_cpus1.iq.FU_type_0::SimdShift            0      0.00%     74.72% # Type of FU issued
system.switch_cpus1.iq.FU_type_0::SimdShiftAcc            0      0.00%     74.72% # Type of FU issued
system.switch_cpus1.iq.FU_type_0::SimdDiv            0      0.00%     74.72% # Type of FU issued
system.switch_cpus1.iq.FU_type_0::SimdSqrt            0      0.00%     74.72% # Type of FU issued
system.switch_cpus1.iq.FU_type_0::SimdFloatAdd            0      0.00%     74.72% # Type of FU issued
system.switch_cpus1.iq.FU_type_0::SimdFloatAlu            0      0.00%     74.72% # Type of FU issued
system.switch_cpus1.iq.FU_type_0::SimdFloatCmp            0      0.00%     74.72% # Type of FU issued
system.switch_cpus1.iq.FU_type_0::SimdFloatCvt            0      0.00%     74.72% # Type of FU issued
system.switch_cpus1.iq.FU_type_0::SimdFloatDiv            0      0.00%     74.72% # Type of FU issued
system.switch_cpus1.iq.FU_type_0::SimdFloatMisc            0      0.00%     74.72% # Type of FU issued
system.switch_cpus1.iq.FU_type_0::SimdFloatMult            0      0.00%     74.72% # Type of FU issued
system.switch_cpus1.iq.FU_type_0::SimdFloatMultAcc            0      0.00%     74.72% # Type of FU issued
system.switch_cpus1.iq.FU_type_0::SimdFloatSqrt            0      0.00%     74.72% # Type of FU issued
system.switch_cpus1.iq.FU_type_0::SimdReduceAdd            0      0.00%     74.72% # Type of FU issued
system.switch_cpus1.iq.FU_type_0::SimdReduceAlu            0      0.00%     74.72% # Type of FU issued
system.switch_cpus1.iq.FU_type_0::SimdReduceCmp            0      0.00%     74.72% # Type of FU issued
system.switch_cpus1.iq.FU_type_0::SimdFloatReduceAdd            0      0.00%     74.72% # Type of FU issued
system.switch_cpus1.iq.FU_type_0::SimdFloatReduceCmp            0      0.00%     74.72% # Type of FU issued
system.switch_cpus1.iq.FU_type_0::SimdAes            0      0.00%     74.72% # Type of FU issued
system.switch_cpus1.iq.FU_type_0::SimdAesMix            0      0.00%     74.72% # Type of FU issued
system.switch_cpus1.iq.FU_type_0::SimdSha1Hash            0      0.00%     74.72% # Type of FU issued
system.switch_cpus1.iq.FU_type_0::SimdSha1Hash2            0      0.00%     74.72% # Type of FU issued
system.switch_cpus1.iq.FU_type_0::SimdSha256Hash            0      0.00%     74.72% # Type of FU issued
system.switch_cpus1.iq.FU_type_0::SimdSha256Hash2            0      0.00%     74.72% # Type of FU issued
system.switch_cpus1.iq.FU_type_0::SimdShaSigma2            0      0.00%     74.72% # Type of FU issued
system.switch_cpus1.iq.FU_type_0::SimdShaSigma3            0      0.00%     74.72% # Type of FU issued
system.switch_cpus1.iq.FU_type_0::SimdPredAlu            0      0.00%     74.72% # Type of FU issued
system.switch_cpus1.iq.FU_type_0::MemRead     30369077     20.03%     94.75% # Type of FU issued
system.switch_cpus1.iq.FU_type_0::MemWrite      7968469      5.25%    100.00% # Type of FU issued
system.switch_cpus1.iq.FU_type_0::FloatMemRead            0      0.00%    100.00% # Type of FU issued
[...]
system.switch_cpus3.commit.numCommittedDist::stdev     3.231454                       # Number of insts commited each cycle
system.switch_cpus3.commit.numCommittedDist::underflows            0      0.00%      0.00% # Number of insts commited each cycle
system.switch_cpus3.commit.numCommittedDist::0     18744154     16.85%     16.85% # Number of insts commited each cycle
system.switch_cpus3.commit.numCommittedDist::1     17234316     15.49%     32.34% # Number of insts commited each cycle
system.switch_cpus3.commit.numCommittedDist::2      5625967      5.06%     37.39% # Number of insts commited each cycle
system.switch_cpus3.commit.numCommittedDist::3     11947878     10.74%     48.13% # Number of insts commited each cycle
system.switch_cpus3.commit.numCommittedDist::4      3985068      3.58%     51.71% # Number of insts commited each cycle
system.switch_cpus3.commit.numCommittedDist::5      5929716      5.33%     57.04% # Number of insts commited each cycle
system.switch_cpus3.commit.numCommittedDist::6      4710531      4.23%     61.28% # Number of insts commited each cycle
system.switch_cpus3.commit.numCommittedDist::7      4543243      4.08%     65.36% # Number of insts commited each cycle
system.switch_cpus3.commit.numCommittedDist::8     38538251     34.64%    100.00% # Number of insts commited each cycle
system.switch_cpus3.commit.numCommittedDist::overflows            0      0.00%    100.00% # Number of insts commited each cycle
system.switch_cpus3.commit.numCommittedDist::min_value            0                       # Number of insts commited each cycle
system.switch_cpus3.commit.numCommittedDist::max_value            8                       # Number of insts commited each cycle
system.switch_cpus3.commit.numCommittedDist::total    111259124                       # Number of insts commited each cycle
system.switch_cpus3.commit.instsCommitted    250000003                       # Number of instructions committed
system.switch_cpus3.commit.opsCommitted     478290631                       # Number of ops (including micro ops) committed
system.switch_cpus3.commit.memRefs          124129154                       # Number of memory references committed
system.switch_cpus3.commit.loads             87057698                       # Number of loads committed
system.switch_cpus3.commit.amos                     0                       # Number of atomic instructions committed
system.switch_cpus3.commit.membars                  0                       # Number of memory barriers committed
system.switch_cpus3.commit.branches          45560206                       # Number of branches committed
system.switch_cpus3.commit.vector                   0                       # Number of committed Vector instructions.
system.switch_cpus3.commit.floating            114136                       # Number of committed floating point instructions.
system.switch_cpus3.commit.integer          475927609                       # Number of committed integer instructions.
system.switch_cpus3.commit.functionCalls       139734                       # Number of function calls committed.
system.switch_cpus3.commit.committedInstType_0::No_OpClass       975197      0.20%      0.20% # Class of committed instruction
system.switch_cpus3.commit.committedInstType_0::IntAlu    348981726     72.96%     73.17% # Class of committed instruction
system.switch_cpus3.commit.committedInstType_0::IntMult      3980939      0.83%     74.00% # Class of committed instruction
system.switch_cpus3.commit.committedInstType_0::IntDiv       223615      0.05%     74.05% # Class of committed instruction
system.switch_cpus3.commit.committedInstType_0::FloatAdd            0      0.00%     74.05% # Class of committed instruction
system.switch_cpus3.commit.committedInstType_0::FloatCmp            0      0.00%     74.05% # Class of committed instruction
system.switch_cpus3.commit.committedInstType_0::FloatCvt            0      0.00%     74.05% # Class of committed instruction
system.switch_cpus3.commit.committedInstType_0::FloatMult            0      0.00%     74.05% # Class of committed instruction
system.switch_cpus3.commit.committedInstType_0::FloatMultAcc            0      0.00%     74.05% # Class of committed instruction
system.switch_cpus3.commit.committedInstType_0::FloatDiv            0      0.00%     74.05% # Class of committed instruction
system.switch_cpus3.commit.committedInstType_0::FloatMisc            0      0.00%     74.05% # Class of committed instruction
system.switch_cpus3.commit.committedInstType_0::FloatSqrt            0      0.00%     74.05% # Class of committed instruction
system.switch_cpus3.commit.committedInstType_0::SimdAdd            0      0.00%     74.05% # Class of committed instruction
system.switch_cpus3.commit.committedInstType_0::SimdAddAcc            0      0.00%     74.05% # Class of committed instruction
system.switch_cpus3.commit.committedInstType_0::SimdAlu            0      0.00%     74.05% # Class of committed instruction
system.switch_cpus3.commit.committedInstType_0::SimdCmp            0      0.00%     74.05% # Class of committed instruction
system.switch_cpus3.commit.committedInstType_0::SimdCvt            0      0.00%     74.05% # Class of committed instruction
system.switch_cpus3.commit.committedInstType_0::SimdMisc            0      0.00%     74.05% # Class of committed instruction
system.switch_cpus3.commit.committedInstType_0::SimdMult            0      0.00%     74.05% # Class of committed instruction
system.switch_cpus3.commit.committedInstType_0::SimdMultAcc            0      0.00%     74.05% # Class of committed instruction
system.switch_cpus3.commit.committedInstType_0::SimdShift            0      0.00%     74.05% # Class of committed instruction
system.switch_cpus3.commit.committedInstType_0::SimdShiftAcc            0      0.00%     74.05% # Class of committed instruction
system.switch_cpus3.commit.committedInstType_0::SimdDiv            0      0.00%     74.05% # Class of committed instruction
system.switch_cpus3.commit.committedInstType_0::SimdSqrt            0      0.00%     74.05% # Class of committed instruction
system.switch_cpus3.commit.committedInstType_0::SimdFloatAdd            0      0.00%     74.05% # Class of committed instruction
system.switch_cpus3.commit.committedInstType_0::SimdFloatAlu            0      0.00%     74.05% # Class of committed instruction
system.switch_cpus3.commit.committedInstType_0::SimdFloatCmp            0      0.00%     74.05% # Class of committed instruction
system.switch_cpus3.commit.committedInstType_0::SimdFloatCvt            0      0.00%     74.05% # Class of committed instruction
system.switch_cpus3.commit.committedInstType_0::SimdFloatDiv            0      0.00%     74.05% # Class of committed instruction
system.switch_cpus3.commit.committedInstType_0::SimdFloatMisc            0      0.00%     74.05% # Class of committed instruction
system.switch_cpus3.commit.committedInstType_0::SimdFloatMult            0      0.00%     74.05% # Class of committed instruction
system.switch_cpus3.commit.committedInstType_0::SimdFloatMultAcc            0      0.00%     74.05% # Class of committed instruction
system.switch_cpus3.commit.committedInstType_0::SimdFloatSqrt            0      0.00%     74.05% # Class of committed instruction
system.switch_cpus3.commit.committedInstType_0::SimdReduceAdd            0      0.00%     74.05% # Class of committed instruction
system.switch_cpus3.commit.committedInstType_0::SimdReduceAlu            0      0.00%     74.05% # Class of committed instruction
system.switch_cpus3.commit.committedInstType_0::SimdReduceCmp            0      0.00%     74.05% # Class of committed instruction
system.switch_cpus3.commit.committedInstType_0::SimdFloatReduceAdd            0      0.00%     74.05% # Class of committed instruction
system.switch_cpus3.commit.committedInstType_0::SimdFloatReduceCmp            0      0.00%     74.05% # Class of committed instruction
system.switch_cpus3.commit.committedInstType_0::SimdAes            0      0.00%     74.05% # Class of committed instruction
system.switch_cpus3.commit.committedInstType_0::SimdAesMix            0      0.00%     74.05% # Class of committed instruction
system.switch_cpus3.commit.committedInstType_0::SimdSha1Hash            0      0.00%     74.05% # Class of committed instruction
system.switch_cpus3.commit.committedInstType_0::SimdSha1Hash2            0      0.00%     74.05% # Class of committed instruction
system.switch_cpus3.commit.committedInstType_0::SimdSha256Hash            0      0.00%     74.05% # Class of committed instruction
system.switch_cpus3.commit.committedInstType_0::SimdSha256Hash2            0      0.00%     74.05% # Class of committed instruction
system.switch_cpus3.commit.committedInstType_0::SimdShaSigma2            0      0.00%     74.05% # Class of committed instruction
system.switch_cpus3.commit.committedInstType_0::SimdShaSigma3            0      0.00%     74.05% # Class of committed instruction
system.switch_cpus3.commit.committedInstType_0::SimdPredAlu            0      0.00%     74.05% # Class of committed instruction
system.switch_cpus3.commit.committedInstType_0::MemRead     87000714     18.19%     92.24% # Class of committed instruction
system.switch_cpus3.commit.committedInstType_0::MemWrite     37014304      7.74%     99.98% # Class of committed instruction
system.switch_cpus3.commit.committedInstType_0::FloatMemRead        56984      0.01%     99.99% # Class of committed instruction
system.switch_cpus3.commit.committedInstType_0::FloatMemWrite        57152      0.01%    100.00% # Class of committed instruction
system.switch_cpus3.commit.committedInstType_0::IprAccess            0      0.00%    100.00% # Class of committed instruction
system.switch_cpus3.commit.committedInstType_0::InstPrefetch            0      0.00%    100.00% # Class of committed instruction
system.switch_cpus3.commit.committedInstType_0::total    478290631                       # Class of committed instruction
system.switch_cpus3.commit.commitEligibleSamples     38538251                       # number cycles where commit BW limit reached
system.switch_cpus3.decode.idleCycles         9667266                       # Number of cycles decode is idle
system.switch_cpus3.decode.blockedCycles     22179338                       # Number of cycles decode is blocked
system.switch_cpus3.decode.runCycles         84029367                       # Number of cycles decode is running
system.switch_cpus3.decode.unblockCycles      8459037                       # Number of cycles decode is unblocking
system.switch_cpus3.decode.squashCycles       1900226                       # Number of cycles decode is squashing
system.switch_cpus3.decode.branchResolved     34294291                       # Number of times decode resolved a  branch
system.switch_cpus3.decode.branchMispred       109349                       # Number of times decode detected a branch misprediction
system.switch_cpus3.decode.decodedInsts     622477250                       # Number of instructions handled by decode
system.switch_cpus3.decode.squashedInsts       444528                       # Number of squashed instructions handled by decode
system.switch_cpus3.dtb.rdAccesses          104581522                       # TLB accesses on read requests
system.switch_cpus3.dtb.wrAccesses           39860058                       # TLB accesses on write requests
system.switch_cpus3.dtb.rdMisses                   93                       # TLB misses on read requests
system.switch_cpus3.dtb.wrMisses                    3                       # TLB misses on write requests
system.switch_cpus3.dtb.walker.power_state.pwrStateResidencyTicks::UNDEFINED 13761323505396                       # Cumulative time (in ticks) in various power states
system.switch_cpus3.fetch.icacheStallCycles      2203798                       # Number of cycles fetch is stalled on an Icache miss
system.switch_cpus3.fetch.insts             338865042                       # Number of instructions fetch has processed
system.switch_cpus3.fetch.branches           61406094                       # Number of branches that fetch encountered
system.switch_cpus3.fetch.predictedBranches     36032250                       # Number of branches that fetch has predicted taken
system.switch_cpus3.fetch.cycles            122024381                       # Number of cycles fetch has run and was not squashing or blocked
system.switch_cpus3.fetch.squashCycles        4014124                       # Number of cycles fetch has spent squashing
system.switch_cpus3.fetch.cacheLines         45364212                       # Number of cache lines fetched
system.switch_cpus3.fetch.icacheSquashes        15137                       # Number of outstanding Icache misses that were squashed
system.switch_cpus3.fetch.nisnDist::samples    126235241                       # Number of instructions fetched each cycle (Total)
system.switch_cpus3.fetch.nisnDist::mean     5.143209                       # Number of instructions fetched each cycle (Total)
system.switch_cpus3.fetch.nisnDist::stdev     3.086922                       # Number of instructions fetched each cycle (Total)
system.switch_cpus3.fetch.nisnDist::underflows            0      0.00%      0.00% # Number of instructions fetched each cycle (Total)
system.switch_cpus3.fetch.nisnDist::0        17917480     14.19%     14.19% # Number of instructions fetched each cycle (Total)
system.switch_cpus3.fetch.nisnDist::1         8698085      6.89%     21.08% # Number of instructions fetched each cycle (Total)
system.switch_cpus3.fetch.nisnDist::2         4749395      3.76%     24.85% # Number of instructions fetched each cycle (Total)
system.switch_cpus3.fetch.nisnDist::3        10900668      8.64%     33.48% # Number of instructions fetched each cycle (Total)
system.switch_cpus3.fetch.nisnDist::4         6913879      5.48%     38.96% # Number of instructions fetched each cycle (Total)
system.switch_cpus3.fetch.nisnDist::5         7767156      6.15%     45.11% # Number of instructions fetched each cycle (Total)
system.switch_cpus3.fetch.nisnDist::6         6876722      5.45%     50.56% # Number of instructions fetched each cycle (Total)
system.switch_cpus3.fetch.nisnDist::7         8691106      6.88%     57.44% # Number of instructions fetched each cycle (Total)
system.switch_cpus3.fetch.nisnDist::8        53720750     42.56%    100.00% # Number of instructions fetched each cycle (Total)
system.switch_cpus3.fetch.nisnDist::overflows            0      0.00%    100.00% # Number of instructions fetched each cycle (Total)
system.switch_cpus3.fetch.nisnDist::min_value            0                       # Number of instructions fetched each cycle (Total)
system.switch_cpus3.fetch.nisnDist::max_value            8                       # Number of instructions fetched each cycle (Total)
system.switch_cpus3.fetch.nisnDist::total    126235241                       # Number of instructions fetched each cycle (Total)
system.switch_cpus3.fetch.branchRate         0.483742                       # Number of branch fetches per cycle
system.switch_cpus3.fetch.rate               2.669497                       # Number of inst fetches per cycle
system.switch_cpus3.itb.rdAccesses                  0                       # TLB accesses on read requests
system.switch_cpus3.itb.wrAccesses           45364212                       # TLB accesses on write requests
system.switch_cpus3.itb.rdMisses                    0                       # TLB misses on read requests
system.switch_cpus3.itb.wrMisses                   33                       # TLB misses on write requests
system.switch_cpus3.itb.walker.power_state.pwrStateResidencyTicks::UNDEFINED 13761323505396                       # Cumulative time (in ticks) in various power states
system.switch_cpus3.lsq0.forwLoads           11558372                       # Number of loads that had data forwarded from stores
system.switch_cpus3.lsq0.squashedLoads       25038342                       # Number of loads squashed
system.switch_cpus3.lsq0.ignoredResponses         3178                       # Number of memory responses ignored because the instruction is squashed
system.switch_cpus3.lsq0.memOrderViolation        46221                       # Number of memory ordering violations
system.switch_cpus3.lsq0.squashedStores       8064410                       # Number of stores squashed
system.switch_cpus3.lsq0.rescheduledLoads           30                       # Number of loads that were rescheduled
system.switch_cpus3.lsq0.blockedByCache             0                       # Number of times an access to memory failed due to the cache being blocked
system.switch_cpus3.power_state.pwrStateResidencyTicks::OFF  42270909444                       # Cumulative time (in ticks) in various power states
system.switch_cpus3.rename.squashCycles       1900226                       # Number of cycles rename is squashing
system.switch_cpus3.rename.idleCycles        13636394                       # Number of cycles rename is idle
system.switch_cpus3.rename.blockCycles       13123550                       # Number of cycles rename is blocking
system.switch_cpus3.rename.serializeStallCycles            0                       # count of cycles rename stalledfor serializing inst
system.switch_cpus3.rename.runCycles         88250746                       # Number of cycles rename is running
system.switch_cpus3.rename.unblockCycles      9324318                       # Number of cycles rename is unblocking
system.switch_cpus3.rename.renamedInsts     610815382                       # Number of instructions processed by rename
system.switch_cpus3.rename.ROBFullEvents        41441                       # Number of times rename has blocked due to ROB full
system.switch_cpus3.rename.IQFullEvents       2454359                       # Number of times rename has blocked due to IQ full
system.switch_cpus3.rename.LQFullEvents       5045321                       # Number of times rename has blocked due to LQ full
system.switch_cpus3.rename.SQFullEvents         58392                       # Number of times rename has blocked due to SQ full
system.switch_cpus3.rename.renamedOperands    788658021                       # Number of destination operands rename has renamed
system.switch_cpus3.rename.lookups         1499417500                       # Number of register rename lookups that rename has made
system.switch_cpus3.rename.intLookups       905472139                       # Number of integer rename lookups
system.switch_cpus3.rename.fpLookups            59266                       # Number of floating rename lookups
system.switch_cpus3.rename.committedMaps    616822722                       # Number of HB maps that are committed
system.switch_cpus3.rename.undoneMaps       171835136                       # Number of HB maps that are undone due to squashing
system.switch_cpus3.rename.serializing              0                       # count of serializing insts renamed
system.switch_cpus3.rename.tempSerializing            0                       # count of temporary serializing insts renamed
system.switch_cpus3.rename.skidInsts         29218392                       # count of insts added to the skid buffer
system.switch_cpus3.rob.reads               662698422                       # The number of ROB reads
system.switch_cpus3.rob.writes             1194964074                       # The number of ROB writes
system.switch_cpus3.thread0.numInsts        250000003                       # Number of Instructions committed
system.switch_cpus3.thread0.numOps          478290631                       # Number of Ops committed
system.switch_cpus3.thread0.numMemRefs              0                       # Number of Memory References
system.voltage_domain.voltage                       1                       # Voltage in Volts

---------- End Simulation Statistics   ----------
