
---------- Begin Simulation Statistics ----------
final_tick                               13761319581657                       # Number of ticks from beginning of simulation (restored from checkpoints and never reset)
host_inst_rate                                 136633                       # Simulator instruction rate (inst/s)
host_mem_usage                               17208448                       # Number of bytes of host memory used
host_op_rate                                   233904                       # Simulator op (including micro ops) rate (op/s)
host_seconds                                  3123.38                       # Real time elapsed on the host
host_tick_rate                               13532483                       # Simulator tick rate (ticks/s)
sim_freq                                 1000000000000                       # Frequency of simulated ticks
sim_insts                                   426755325                       # Number of instructions simulated
sim_ops                                     730570523                       # Number of ops (including micro ops) simulated
sim_seconds                                  0.042267                       # Number of seconds simulated
sim_ticks                                 42267043647                       # Number of ticks simulated
system.cpu0.committedInsts                         19                       # Number of instructions committed
system.cpu0.committedOps                           21                       # Number of ops (including micro ops) committed
system.cpu0.idle_fraction                           0                       # Percentage of idle cycles
system.cpu0.l2bus.snoop_filter.hit_multi_requests            0                       # Number of requests hitting in the snoop filter with multiple (>1) holders of the requested data.
system.cpu0.l2bus.snoop_filter.hit_multi_snoops            0                       # Number of snoops hitting in the snoop filter with multiple (>1) holders of the requested data.
system.cpu0.l2bus.snoop_filter.hit_single_requests      3017522                       # Number of requests hitting in the snoop filter with a single holder of the requested data.
system.cpu0.l2bus.snoop_filter.hit_single_snoops          241                       # Number of snoops hitting in the snoop filter with a single holder of the requested data.
system.cpu0.l2bus.snoop_filter.tot_requests      6035622                       # Total number of requests made to the snoop filter.
system.cpu0.l2bus.snoop_filter.tot_snoops          241                       # Total number of snoops made to the snoop filter.
system.cpu0.mmucache.mmubus.snoop_filter.hit_multi_requests            0                       # Number of requests hitting in the snoop filter with multiple (>1) holders of the requested data.
system.cpu0.mmucache.mmubus.snoop_filter.hit_multi_snoops            0                       # Number of snoops hitting in the snoop filter with multiple (>1) holders of the requested data.
system.cpu0.mmucache.mmubus.snoop_filter.hit_single_requests            0                       # Number of requests hitting in the snoop filter with a single holder of the requested data.
system.cpu0.mmucache.mmubus.snoop_filter.hit_single_snoops            0                       # Number of snoops hitting in the snoop filter with a single holder of the requested data.
system.cpu0.mmucache.mmubus.snoop_filter.tot_requests            0                       # Total number of requests made to the snoop filter.
system.cpu0.mmucache.mmubus.snoop_filter.tot_snoops            0                       # Total number of snoops made to the snoop filter.
system.cpu0.not_idle_fraction                       1                       # Percentage of non-idle cycles
system.cpu0.numCycles                              31                       # number of cpu cycles simulated
system.cpu0.numWorkItemsCompleted                   0                       # number of work items this cpu completed
system.cpu0.numWorkItemsStarted                     0                       # number of work items this cpu started
system.cpu0.num_busy_cycles                        31                       # Number of busy cycles
system.cpu0.num_conditional_control_insts            0                       # number of instructions that are conditional controls
system.cpu0.num_fp_alu_accesses                    20                       # Number of float alu accesses
system.cpu0.num_fp_insts                           20                       # number of float instructions
system.cpu0.num_fp_register_reads                  54                       # number of times the floating registers were read
system.cpu0.num_fp_register_writes                 20                       # number of times the floating registers were written
system.cpu0.num_func_calls                          0                       # number of times a function call or return occured
system.cpu0.num_idle_cycles                         0                       # Number of idle cycles
system.cpu0.num_int_alu_accesses                    2                       # Number of integer alu accesses
system.cpu0.num_int_insts                           2                       # number of integer instructions
system.cpu0.num_int_register_reads                  4                       # number of times the integer registers were read
system.cpu0.num_int_register_writes                 1                       # number of times the integer registers were written
system.cpu0.num_load_insts                          1                       # Number of load instructions
system.cpu0.num_mem_refs                            1                       # number of memory refs
system.cpu0.num_store_insts                         0                       # Number of store instructions
system.cpu0.num_vec_alu_accesses                    0                       # Number of vector alu accesses
system.cpu0.num_vec_insts                           0                       # number of vector instructions
system.cpu0.num_vec_register_reads                  0                       # number of times the vector registers were read
system.cpu0.num_vec_register_writes                 0                       # number of times the vector registers were written
system.cpu0.op_class::No_OpClass                    0      0.00%      0.00% # Class of executed instruction
system.cpu0.op_class::IntAlu                        4     19.05%     19.05% # Class of executed instruction
system.cpu0.op_class::IntMult                       0      0.00%     19.05% # Class of executed instruction
system.cpu0.op_class::IntDiv                        0      0.00%     19.05% # Class of executed instruction
system.cpu0.op_class::FloatAdd                      0      0.00%     19.05% # Class of executed instruction
system.cpu0.op_class::FloatCmp                      0      0.00%     19.05% # Class of executed instruction
system.cpu0.op_class::FloatCvt                      0      0.00%     19.05% # Class of executed instruction
system.cpu0.op_class::FloatMult                     0      0.00%     19.05% # Class of executed instruction
system.cpu0.op_class::FloatMultAcc                  0      0.00%     19.05% # Class of executed instruction
system.cpu0.op_class::FloatDiv                      0      0.00%     19.05% # Class of executed instruction
system.cpu0.op_class::FloatMisc                     0      0.00%     19.05% # Class of executed instruction
system.cpu0.op_class::FloatSqrt                     0      0.00%     19.05% # Class of executed instruction
system.cpu0.op_class::SimdAdd                       0      0.00%     19.05% # Class of executed instruction
system.cpu0.op_class::SimdAddAcc                    0      0.00%     19.05% # Class of executed instruction
system.cpu0.op_class::SimdAlu                       0      0.00%     19.05% # Class of executed instruction
system.cpu0.op_class::SimdCmp                       0      0.00%     19.05% # Class of executed instruction
system.cpu0.op_class::SimdCvt                       0      0.00%     19.05% # Class of executed instruction
system.cpu0.op_class::SimdMisc                      0      0.00%     19.05% # Class of executed instruction
system.cpu0.op_class::SimdMult                      0      0.00%     19.05% # Class of executed instruction
system.cpu0.op_class::SimdMultAcc                   0      0.00%     19.05% # Class of executed instruction
system.cpu0.op_class::SimdShift                     0      0.00%     19.05% # Class of executed instruction
system.cpu0.op_class::SimdShiftAcc                  0      0.00%     19.05% # Class of executed instruction
system.cpu0.op_class::SimdDiv                       0      0.00%     19.05% # Class of executed instruction
system.cpu0.op_class::SimdSqrt                      0      0.00%     19.05% # Class of executed instruction
system.cpu0.op_class::SimdFloatAdd                  7     33.33%     52.38% # Class of executed instruction
system.cpu0.op_class::SimdFloatAlu                  0      0.00%     52.38% # Class of executed instruction
system.cpu0.op_class::SimdFloatCmp                  0      0.00%     52.38% # Class of executed instruction
system.cpu0.op_class::SimdFloatCvt                  0      0.00%     52.38% # Class of executed instruction
system.cpu0.op_class::SimdFloatDiv                  0      0.00%     52.38% # Class of executed instruction
system.cpu0.op_class::SimdFloatMisc                 0      0.00%     52.38% # Class of executed instruction
system.cpu0.op_class::SimdFloatMult                 9     42.86%     95.24% # Class of executed instruction
system.cpu0.op_class::SimdFloatMultAcc              0      0.00%     95.24% # Class of executed instruction
system.cpu0.op_class::SimdFloatSqrt                 0      0.00%     95.24% # Class of executed instruction
system.cpu0.op_class::SimdReduceAdd                 0      0.00%     95.24% # Class of executed instruction
system.cpu0.op_class::SimdReduceAlu                 0      0.00%     95.24% # Class of executed instruction
system.cpu0.op_class::SimdReduceCmp                 0      0.00%     95.24% # Class of executed instruction
system.cpu0.op_class::SimdFloatReduceAdd            0      0.00%     95.24% # Class of executed instruction
system.cpu0.op_class::SimdFloatReduceCmp            0      0.00%     95.24% # Class of executed instruction
system.cpu0.op_class::SimdAes                       0      0.00%     95.24% # Class of executed instruction
system.cpu0.op_class::SimdAesMix                    0      0.00%     95.24% # Class of executed instruction
system.cpu0.op_class::SimdSha1Hash                  0      0.00%     95.24% # Class of executed instruction
system.cpu0.op_class::SimdSha1Hash2                 0      0.00%     95.24% # Class of executed instruction
system.cpu0.op_class::SimdSha256Hash                0      0.00%     95.24% # Class of executed instruction
system.cpu0.op_class::SimdSha256Hash2               0      0.00%     95.24% # Class of executed instruction
system.cpu0.op_class::SimdShaSigma2                 0      0.00%     95.24% # Class of executed instruction
system.cpu0.op_class::SimdShaSigma3                 0      0.00%     95.24% # Class of executed instruction
system.cpu0.op_class::SimdPredAlu                   0      0.00%     95.24% # Class of executed instruction
system.cpu0.op_class::MemRead                       0      0.00%     95.24% # Class of executed instruction
system.cpu0.op_class::MemWrite                      0      0.00%     95.24% # Class of executed instruction
system.cpu0.op_class::FloatMemRead                  1      4.76%    100.00% # Class of executed instruction
system.cpu0.op_class::FloatMemWrite                 0      0.00%    100.00% # Class of executed instruction
system.cpu0.op_class::IprAccess                     0      0.00%    100.00% # Class of executed instruction
system.cpu0.op_class::InstPrefetch                  0      0.00%    100.00% # Class of executed instruction
system.cpu0.op_class::total                        21                       # Class of executed instruction
system.cpu0.workload.numSyscalls                    0                       # Number of system calls
system.cpu1.Branches                                2                       # Number of branches fetched
system.cpu1.committedInsts                         12                       # Number of instructions committed
system.cpu1.committedOps                           27                       # Number of ops (including micro ops) committed
system.cpu1.idle_fraction                           0                       # Percentage of idle cycles
system.cpu1.l2bus.snoop_filter.hit_multi_requests          123                       # Number of requests hitting in the snoop filter with multiple (>1) holders of the requested data.
system.cpu1.l2bus.snoop_filter.hit_multi_snoops           48                       # Number of snoops hitting in the snoop filter with multiple (>1) holders of the requested data.
system.cpu1.l2bus.snoop_filter.hit_single_requests      1792073                       # Number of requests hitting in the snoop filter with a single holder of the requested data.
system.cpu1.l2bus.snoop_filter.hit_single_snoops          224                       # Number of snoops hitting in the snoop filter with a single holder of the requested data.
system.cpu1.l2bus.snoop_filter.tot_requests      3571659                       # Total number of requests made to the snoop filter.
system.cpu1.l2bus.snoop_filter.tot_snoops          272                       # Total number of snoops made to the snoop filter.
system.cpu1.mmucache.mmubus.snoop_filter.hit_multi_requests            0                       # Number of requests hitting in the snoop filter with multiple (>1) holders of the requested data.
system.cpu1.mmucache.mmubus.snoop_filter.hit_multi_snoops            0                       # Number of snoops hitting in the snoop filter with multiple (>1) holders of the requested data.
system.cpu1.mmucache.mmubus.snoop_filter.hit_single_requests            0                       # Number of requests hitting in the snoop filter with a single holder of the requested data.
system.cpu1.mmucache.mmubus.snoop_filter.hit_single_snoops            0                       # Number of snoops hitting in the snoop filter with a single holder of the requested data.
system.cpu1.mmucache.mmubus.snoop_filter.tot_requests            0                       # Total number of requests made to the snoop filter.
system.cpu1.mmucache.mmubus.snoop_filter.tot_snoops            0                       # Total number of snoops made to the snoop filter.
system.cpu1.not_idle_fraction                       1                       # Percentage of non-idle cycles
system.cpu1.numCycles                              30                       # number of cpu cycles simulated
system.cpu1.numWorkItemsCompleted                   0                       # number of work items this cpu completed
system.cpu1.numWorkItemsStarted                     0                       # number of work items this cpu started
system.cpu1.num_busy_cycles                        30                       # Number of busy cycles
system.cpu1.num_cc_register_reads                  13                       # number of times the CC registers were read
system.cpu1.num_cc_register_writes                 11                       # number of times the CC registers were written
system.cpu1.num_conditional_control_insts            2                       # number of instructions that are conditional controls
system.cpu1.num_fp_alu_accesses                     0                       # Number of float alu accesses
system.cpu1.num_fp_insts                            0                       # number of float instructions
system.cpu1.num_fp_register_reads                   0                       # number of times the floating registers were read
system.cpu1.num_fp_register_writes                  0                       # number of times the floating registers were written
system.cpu1.num_func_calls                          0                       # number of times a function call or return occured
system.cpu1.num_idle_cycles                         0                       # Number of idle cycles
system.cpu1.num_int_alu_accesses                   26                       # Number of integer alu accesses
system.cpu1.num_int_insts                          26                       # number of integer instructions
system.cpu1.num_int_register_reads                 69                       # number of times the integer registers were read
system.cpu1.num_int_register_writes                37                       # number of times the integer registers were written
system.cpu1.num_load_insts                          1                       # Number of load instructions
system.cpu1.num_mem_refs                            3                       # number of memory refs
system.cpu1.num_store_insts                         2                       # Number of store instructions
system.cpu1.num_vec_alu_accesses                    0                       # Number of vector alu accesses
system.cpu1.num_vec_insts                           0                       # number of vector instructions
system.cpu1.num_vec_register_reads                  0                       # number of times the vector registers were read
system.cpu1.num_vec_register_writes                 0                       # number of times the vector registers were written
system.cpu1.op_class::No_OpClass                    1      3.70%      3.70% # Class of executed instruction
system.cpu1.op_class::IntAlu                       16     59.26%     62.96% # Class of executed instruction
system.cpu1.op_class::IntMult                       0      0.00%     62.96% # Class of executed instruction
system.cpu1.op_class::IntDiv                        7     25.93%     88.89% # Class of executed instruction
system.cpu1.op_class::FloatAdd                      0      0.00%     88.89% # Class of executed instruction
system.cpu1.op_class::FloatCmp                      0      0.00%     88.89% # Class of executed instruction
system.cpu1.op_class::FloatCvt                      0      0.00%     88.89% # Class of executed instruction
system.cpu1.op_class::FloatMult                     0      0.00%     88.89% # Class of executed instruction
system.cpu1.op_class::FloatMultAcc                  0      0.00%     88.89% # Class of executed instruction
system.cpu1.op_class::FloatDiv                      0      0.00%     88.89% # Class of executed instruction
system.cpu1.op_class::FloatMisc                     0      0.00%     88.89% # Class of executed instruction
system.cpu1.op_class::FloatSqrt                     0      0.00%     88.89% # Class of executed instruction
system.cpu1.op_class::SimdAdd                       0      0.00%     88.89% # Class of executed instruction
system.cpu1.op_class::SimdAddAcc                    0      0.00%     88.89% # Class of executed instruction
system.cpu1.op_class::SimdAlu                       0      0.00%     88.89% # Class of executed instruction
system.cpu1.op_class::SimdCmp                       0      0.00%     88.89% # Class of executed instruction
system.cpu1.op_class::SimdCvt                       0      0.00%     88.89% # Class of executed instruction
system.cpu1.op_class::SimdMisc                      0      0.00%     88.89% # Class of executed instruction
system.cpu1.op_class::SimdMult                      0      0.00%     88.89% # Class of executed instruction
system.cpu1.op_class::SimdMultAcc                   0      0.00%     88.89% # Class of executed instruction
system.cpu1.op_class::SimdShift                     0      0.00%     88.89% # Class of executed instruction
system.cpu1.op_class::SimdShiftAcc                  0      0.00%     88.89% # Class of executed instruction
system.cpu1.op_class::SimdDiv                       0      0.00%     88.89% # Class of executed instruction
system.cpu1.op_class::SimdSqrt                      0      0.00%     88.89% # Class of executed instruction
system.cpu1.op_class::SimdFloatAdd                  0      0.00%     88.89% # Class of executed instruction
system.cpu1.op_class::SimdFloatAlu                  0      0.00%     88.89% # Class of executed instruction
system.cpu1.op_class::SimdFloatCmp                  0      0.00%     88.89% # Class of executed instruction
system.cpu1.op_class::SimdFloatCvt                  0      0.00%     88.89% # Class of executed instruction
system.cpu1.op_class::SimdFloatDiv                  0      0.00%     88.89% # Class of executed instruction
system.cpu1.op_class::SimdFloatMisc                 0      0.00%     88.89% # Class of executed instruction
system.cpu1.op_class::SimdFloatMult                 0      0.00%     88.89% # Class of executed instruction
system.cpu1.op_class::SimdFloatMultAcc              0      0.00%     88.89% # Class of executed instruction
system.cpu1.op_class::SimdFloatSqrt                 0      0.00%     88.89% # Class of executed instruction
system.cpu1.op_class::SimdReduceAdd                 0      0.00%     88.89% # Class of executed instruction
system.cpu1.op_class::SimdReduceAlu                 0      0.00%     88.89% # Class of executed instruction
system.cpu1.op_class::SimdReduceCmp                 0      0.00%     88.89% # Class of executed instruction
system.cpu1.op_class::SimdFloatReduceAdd            0      0.00%     88.89% # Class of executed instruction
system.cpu1.op_class::SimdFloatReduceCmp            0      0.00%     88.89% # Class of executed instruction
system.cpu1.op_class::SimdAes                       0      0.00%     88.89% # Class of executed instruction
system.cpu1.op_class::SimdAesMix                    0      0.00%     88.89% # Class of executed instruction
system.cpu1.op_class::SimdSha1Hash                  0      0.00%     88.89% # Class of executed instruction
system.cpu1.op_class::SimdSha1Hash2                 0      0.00%     88.89% # Class of executed instruction
system.cpu1.op_class::SimdSha256Hash                0      0.00%     88.89% # Class of executed instruction
system.cpu1.op_class::SimdSha256Hash2               0      0.00%     88.89% # Class of executed instruction
system.cpu1.op_class::SimdShaSigma2                 0      0.00%     88.89% # Class of executed instruction
system.cpu1.op_class::SimdShaSigma3                 0      0.00%     88.89% # Class of executed instruction
system.cpu1.op_class::SimdPredAlu                   0      0.00%     88.89% # Class of executed instruction
system.cpu1.op_class::MemRead                       1      3.70%     92.59% # Class of executed instruction
system.cpu1.op_class::MemWrite                      2      7.41%    100.00% # Class of executed instruction
system.cpu1.op_class::FloatMemRead                  0      0.00%    100.00% # Class of executed instruction
system.cpu1.op_class::FloatMemWrite                 0      0.00%    100.00% # Class of executed instruction
system.cpu1.op_class::IprAccess                     0      0.00%    100.00% # Class of executed instruction
system.cpu1.op_class::InstPrefetch                  0      0.00%    100.00% # Class of executed instruction
system.cpu1.op_class::total                        27                       # Class of executed instruction
system.cpu1.workload.numSyscalls                    0                       # Number of system calls
system.cpu2.Branches                                1                       # Number of branches fetched
system.cpu2.committedInsts                         11                       # Number of instructions committed
system.cpu2.committedOps                           25                       # Number of ops (including micro ops) committed
system.cpu2.idle_fraction                           0                       # Percentage of idle cycles
system.cpu2.l2bus.snoop_filter.hit_multi_requests            3                       # Number of requests hitting in the snoop filter with multiple (>1) holders of the requested data.
system.cpu2.l2bus.snoop_filter.hit_multi_snoops            0                       # Number of snoops hitting in the snoop filter with multiple (>1) holders of the requested data.
system.cpu2.l2bus.snoop_filter.hit_single_requests       601762                       # Number of requests hitting in the snoop filter with a single holder of the requested data.
system.cpu2.l2bus.snoop_filter.hit_single_snoops          804                       # Number of snoops hitting in the snoop filter with a single holder of the requested data.
system.cpu2.l2bus.snoop_filter.tot_requests      1203492                       # Total number of requests made to the snoop filter.
system.cpu2.l2bus.snoop_filter.tot_snoops          804                       # Total number of snoops made to the snoop filter.
system.cpu2.mmucache.mmubus.snoop_filter.hit_multi_requests            0                       # Number of requests hitting in the snoop filter with multiple (>1) holders of the requested data.
system.cpu2.mmucache.mmubus.snoop_filter.hit_multi_snoops            0                       # Number of snoops hitting in the snoop filter with multiple (>1) holders of the requested data.
system.cpu2.mmucache.mmubus.snoop_filter.hit_single_requests            0                       # Number of requests hitting in the snoop filter with a single holder of the requested data.
system.cpu2.mmucache.mmubus.snoop_filter.hit_single_snoops            0                       # Number of snoops hitting in the snoop filter with a single holder of the requested data.
system.cpu2.mmucache.mmubus.snoop_filter.tot_requests            0                       # Total number of requests made to the snoop filter.
system.cpu2.mmucache.mmubus.snoop_filter.tot_snoops            0                       # Total number of snoops made to the snoop filter.
system.cpu2.not_idle_fraction                       1                       # Percentage of non-idle cycles
system.cpu2.numCycles                              31                       # number of cpu cycles simulated
system.cpu2.numWorkItemsCompleted                   0                       # number of work items this cpu completed
system.cpu2.numWorkItemsStarted                     0                       # number of work items this cpu started
system.cpu2.num_busy_cycles                        31                       # Number of busy cycles
system.cpu2.num_cc_register_reads                   5                       # number of times the CC registers were read
system.cpu2.num_cc_register_writes                 10                       # number of times the CC registers were written
system.cpu2.num_conditional_control_insts            1                       # number of instructions that are conditional controls
system.cpu2.num_fp_alu_accesses                    12                       # Number of float alu accesses
system.cpu2.num_fp_insts                           12                       # number of float instructions
system.cpu2.num_fp_register_reads                   6                       # number of times the floating registers were read
system.cpu2.num_fp_register_writes                 12                       # number of times the floating registers were written
system.cpu2.num_func_calls                          0                       # number of times a function call or return occured
system.cpu2.num_idle_cycles                         0                       # Number of idle cycles
system.cpu2.num_int_alu_accesses                   17                       # Number of integer alu accesses
system.cpu2.num_int_insts                          17                       # number of integer instructions
system.cpu2.num_int_register_reads                 26                       # number of times the integer registers were read
system.cpu2.num_int_register_writes                12                       # number of times the integer registers were written
system.cpu2.num_load_insts                          4                       # Number of load instructions
system.cpu2.num_mem_refs                            4                       # number of memory refs
system.cpu2.num_store_insts                         0                       # Number of store instructions
system.cpu2.num_vec_alu_accesses                    0                       # Number of vector alu accesses
system.cpu2.num_vec_insts                           0                       # number of vector instructions
system.cpu2.num_vec_register_reads                  0                       # number of times the vector registers were read
system.cpu2.num_vec_register_writes                 0                       # number of times the vector registers were written
system.cpu2.op_class::No_OpClass                    0      0.00%      0.00% # Class of executed instruction
system.cpu2.op_class::IntAlu                       13     52.00%     52.00% # Class of executed instruction
system.cpu2.op_class::IntMult                       0      0.00%     52.00% # Class of executed instruction
system.cpu2.op_class::IntDiv                        0      0.00%     52.00% # Class of executed instruction
system.cpu2.op_class::FloatAdd                      6     24.00%     76.00% # Class of executed instruction
system.cpu2.op_class::FloatCmp                      0      0.00%     76.00% # Class of executed instruction
system.cpu2.op_class::FloatCvt                      0      0.00%     76.00% # Class of executed instruction
system.cpu2.op_class::FloatMult                     0      0.00%     76.00% # Class of executed instruction
system.cpu2.op_class::FloatMultAcc                  0      0.00%     76.00% # Class of executed instruction
system.cpu2.op_class::FloatDiv                      0      0.00%     76.00% # Class of executed instruction
system.cpu2.op_class::FloatMisc                     0      0.00%     76.00% # Class of executed instruction
system.cpu2.op_class::FloatSqrt                     0      0.00%     76.00% # Class of executed instruction
system.cpu2.op_class::SimdAdd                       0      0.00%     76.00% # Class of executed instruction
system.cpu2.op_class::SimdAddAcc                    0      0.00%     76.00% # Class of executed instruction
system.cpu2.op_class::SimdAlu                       0      0.00%     76.00% # Class of executed instruction
system.cpu2.op_class::SimdCmp                       0      0.00%     76.00% # Class of executed instruction
system.cpu2.op_class::SimdCvt                       0      0.00%     76.00% # Class of executed instruction
system.cpu2.op_class::SimdMisc                      0      0.00%     76.00% # Class of executed instruction
system.cpu2.op_class::SimdMult                      0      0.00%     76.00% # Class of executed instruction
system.cpu2.op_class::SimdMultAcc                   0      0.00%     76.00% # Class of executed instruction
system.cpu2.op_class::SimdShift                     0      0.00%     76.00% # Class of executed instruction
system.cpu2.op_class::SimdShiftAcc                  0      0.00%     76.00% # Class of executed instruction
system.cpu2.op_class::SimdDiv                       0      0.00%     76.00% # Class of executed instruction
system.cpu2.op_class::SimdSqrt                      0      0.00%     76.00% # Class of executed instruction
system.cpu2.op_class::SimdFloatAdd                  2      8.00%     84.00% # Class of executed instruction
system.cpu2.op_class::SimdFloatAlu                  0      0.00%     84.00% # Class of executed instruction
system.cpu2.op_class::SimdFloatCmp                  0      0.00%     84.00% # Class of executed instruction
system.cpu2.op_class::SimdFloatCvt                  0      0.00%     84.00% # Class of executed instruction
system.cpu2.op_class::SimdFloatDiv                  0      0.00%     84.00% # Class of executed instruction
system.cpu2.op_class::SimdFloatMisc                 0      0.00%     84.00% # Class of executed instruction
system.cpu2.op_class::SimdFloatMult                 0      0.00%     84.00% # Class of executed instruction
system.cpu2.op_class::SimdFloatMultAcc              0      0.00%     84.00% # Class of executed instruction
system.cpu2.op_class::SimdFloatSqrt                 0      0.00%     84.00% # Class of executed instruction
system.cpu2.op_class::SimdReduceAdd                 0      0.00%     84.00% # Class of executed instruction
system.cpu2.op_class::SimdReduceAlu                 0      0.00%     84.00% # Class of executed instruction
system.cpu2.op_class::SimdReduceCmp                 0      0.00%     84.00% # Class of executed instruction
system.cpu2.op_class::SimdFloatReduceAdd            0      0.00%     84.00% # Class of executed instruction
system.cpu2.op_class::SimdFloatReduceCmp            0      0.00%     84.00% # Class of executed instruction
system.cpu2.op_class::SimdAes                       0      0.00%     84.00% # Class of executed instruction
system.cpu2.op_class::SimdAesMix                    0      0.00%     84.00% # Class of executed instruction
system.cpu2.op_class::SimdSha1Hash                  0      0.00%     84.00% # Class of executed instruction
system.cpu2.op_class::SimdSha1Hash2                 0      0.00%     84.00% # Class of executed instruction
system.cpu2.op_class::SimdSha256Hash                0      0.00%     84.00% # Class of executed instruction
system.cpu2.op_class::SimdSha256Hash2               0      0.00%     84.00% # Class of executed instruction
system.cpu2.op_class::SimdShaSigma2                 0      0.00%     84.00% # Class of executed instruction
system.cpu2.op_class::SimdShaSigma3                 0      0.00%     84.00% # Class of executed instruction
system.cpu2.op_class::SimdPredAlu                   0      0.00%     84.00% # Class of executed instruction
system.cpu2.op_class::MemRead                       0      0.00%     84.00% # Class of executed instruction
system.cpu2.op_class::MemWrite                      0      0.00%     84.00% # Class of executed instruction
system.cpu2.op_class::FloatMemRead                  4     16.00%    100.00% # Class of executed instruction
system.cpu2.op_class::FloatMemWrite                 0      0.00%    100.00% # Class of executed instruction
system.cpu2.op_class::IprAccess                     0      0.00%    100.00% # Class of executed instruction
system.cpu2.op_class::InstPrefetch                  0      0.00%    100.00% # Class of executed instruction
system.cpu2.op_class::total                        25                       # Class of executed instruction
system.cpu2.workload.numSyscalls                    0                       # Number of system calls
system.cpu3.Branches                                3                       # Number of branches fetched
system.cpu3.committedInsts                         15                       # Number of instructions committed
system.cpu3.committedOps                           29                       # Number of ops (including micro ops) committed
system.cpu3.idle_fraction                           0                       # Percentage of idle cycles
system.cpu3.l2bus.snoop_filter.hit_multi_requests            3                       # Number of requests hitting in the snoop filter with multiple (>1) holders of the requested data.
system.cpu3.l2bus.snoop_filter.hit_multi_snoops            0                       # Number of snoops hitting in the snoop filter with multiple (>1) holders of the requested data.
system.cpu3.l2bus.snoop_filter.hit_single_requests        40459                       # Number of requests hitting in the snoop filter with a single holder of the requested data.
system.cpu3.l2bus.snoop_filter.hit_single_snoops            0                       # Number of snoops hitting in the snoop filter with a single holder of the requested data.
system.cpu3.l2bus.snoop_filter.tot_requests        81746                       # Total number of requests made to the snoop filter.
system.cpu3.l2bus.snoop_filter.tot_snoops            0                       # Total number of snoops made to the snoop filter.
system.cpu3.mmucache.mmubus.snoop_filter.hit_multi_requests            0                       # Number of requests hitting in the snoop filter with multiple (>1) holders of the requested data.
system.cpu3.mmucache.mmubus.snoop_filter.hit_multi_snoops            0                       # Number of snoops hitting in the snoop filter with multiple (>1) holders of the requested data.
system.cpu3.mmucache.mmubus.snoop_filter.hit_single_requests            0                       # Number of requests hitting in the snoop filter with a single holder of the requested data.
system.cpu3.mmucache.mmubus.snoop_filter.hit_single_snoops            0                       # Number of snoops hitting in the snoop filter with a single holder of the requested data.
system.cpu3.mmucache.mmubus.snoop_filter.tot_requests            0                       # Total number of requests made to the snoop filter.
system.cpu3.mmucache.mmubus.snoop_filter.tot_snoops            0                       # Total number of snoops made to the snoop filter.
system.cpu3.not_idle_fraction                       1                       # Percentage of non-idle cycles
system.cpu3.numCycles                              32                       # number of cpu cycles simulated
system.cpu3.numWorkItemsCompleted                   0                       # number of work items this cpu completed
system.cpu3.numWorkItemsStarted                     0                       # number of work items this cpu started
system.cpu3.num_busy_cycles                        32                       # Number of busy cycles
system.cpu3.num_cc_register_reads                  17                       # number of times the CC registers were read
system.cpu3.num_cc_register_writes                 16                       # number of times the CC registers were written
system.cpu3.num_conditional_control_insts            3                       # number of instructions that are conditional controls
system.cpu3.num_fp_alu_accesses                     0                       # Number of float alu accesses
system.cpu3.num_fp_insts                            0                       # number of float instructions
system.cpu3.num_fp_register_reads                   0                       # number of times the floating registers were read
system.cpu3.num_fp_register_writes                  0                       # number of times the floating registers were written
system.cpu3.num_func_calls                          0                       # number of times a function call or return occured
system.cpu3.num_idle_cycles                         0                       # Number of idle cycles
system.cpu3.num_int_alu_accesses                   29                       # Number of integer alu accesses
system.cpu3.num_int_insts                          29                       # number of integer instructions
system.cpu3.num_int_register_reads                 53                       # number of times the integer registers were read
system.cpu3.num_int_register_writes                25                       # number of times the integer registers were written
system.cpu3.num_load_insts                          7                       # Number of load instructions
system.cpu3.num_mem_refs                            8                       # number of memory refs
system.cpu3.num_store_insts                         1                       # Number of store instructions
system.cpu3.num_vec_alu_accesses                    0                       # Number of vector alu accesses
system.cpu3.num_vec_insts                           0                       # number of vector instructions
system.cpu3.num_vec_register_reads                  0                       # number of times the vector registers were read
system.cpu3.num_vec_register_writes                 0                       # number of times the vector registers were written
system.cpu3.op_class::No_OpClass                    0      0.00%      0.00% # Class of executed instruction
system.cpu3.op_class::IntAlu                       21     72.41%     72.41% # Class of executed instruction
system.cpu3.op_class::IntMult                       0      0.00%     72.41% # Class of executed instruction
system.cpu3.op_class::IntDiv                        0      0.00%     72.41% # Class of executed instruction
system.cpu3.op_class::FloatAdd                      0      0.00%     72.41% # Class of executed instruction
system.cpu3.op_class::FloatCmp                      0      0.00%     72.41% # Class of executed instruction
system.cpu3.op_class::FloatCvt                      0      0.00%     72.41% # Class of executed instruction
system.cpu3.op_class::FloatMult                     0      0.00%     72.41% # Class of executed instruction
system.cpu3.op_class::FloatMultAcc                  0      0.00%     72.41% # Class of executed instruction
system.cpu3.op_class::FloatDiv                      0      0.00%     72.41% # Class of executed instruction
system.cpu3.op_class::FloatMisc                     0      0.00%     72.41% # Class of executed instruction
system.cpu3.op_class::FloatSqrt                     0      0.00%     72.41% # Class of executed instruction
system.cpu3.op_class::SimdAdd                       0      0.00%     72.41% # Class of executed instruction
system.cpu3.op_class::SimdAddAcc                    0      0.00%     72.41% # Class of executed instruction
system.cpu3.op_class::SimdAlu                       0      0.00%     72.41% # Class of executed instruction
system.cpu3.op_class::SimdCmp                       0      0.00%     72.41% # Class of executed instruction
system.cpu3.op_class::SimdCvt                       0      0.00%     72.41% # Class of executed instruction
system.cpu3.op_class::SimdMisc                      0      0.00%     72.41% # Class of executed instruction
system.cpu3.op_class::SimdMult                      0      0.00%     72.41% # Class of executed instruction
system.cpu3.op_class::SimdMultAcc                   0      0.00%     72.41% # Class of executed instruction
system.cpu3.op_class::SimdShift                     0      0.00%     72.41% # Class of executed instruction
system.cpu3.op_class::SimdShiftAcc                  0      0.00%     72.41% # Class of executed instruction
system.cpu3.op_class::SimdDiv                       0      0.00%     72.41% # Class of executed instruction
system.cpu3.op_class::SimdSqrt                      0      0.00%     72.41% # Class of executed instruction
system.cpu3.op_class::SimdFloatAdd                  0      0.00%     72.41% # Class of executed instruction
system.cpu3.op_class::SimdFloatAlu                  0      0.00%     72.41% # Class of executed instruction
system.cpu3.op_class::SimdFloatCmp                  0      0.00%     72.41% # Class of executed instruction
system.cpu3.op_class::SimdFloatCvt                  0      0.00%     72.41% # Class of executed instruction
system.cpu3.op_class::SimdFloatDiv                  0      0.00%     72.41% # Class of executed instruction
system.cpu3.op_class::SimdFloatMisc                 0      0.00%     72.41% # Class of executed instruction
system.cpu3.op_class::SimdFloatMult                 0      0.00%     72.41% # Class of executed instruction
system.cpu3.op_class::SimdFloatMultAcc              0      0.00%     72.41% # Class of executed instruction
system.cpu3.op_class::SimdFloatSqrt                 0      0.00%     72.41% # Class of executed instruction
system.cpu3.op_class::SimdReduceAdd                 0      0.00%     72.41% # Class of executed instruction
system.cpu3.op_class::SimdReduceAlu                 0      0.00%     72.41% # Class of executed instruction
system.cpu3.op_class::SimdReduceCmp                 0      0.00%     72.41% # Class of executed instruction
system.cpu3.op_class::SimdFloatReduceAdd            0      0.00%     72.41% # Class of executed instruction
system.cpu3.op_class::SimdFloatReduceCmp            0      0.00%     72.41% # Class of executed instruction
system.cpu3.op_class::SimdAes                       0      0.00%     72.41% # Class of executed instruction
system.cpu3.op_class::SimdAesMix                    0      0.00%     72.41% # Class of executed instruction
system.cpu3.op_class::SimdSha1Hash                  0      0.00%     72.41% # Class of executed instruction
system.cpu3.op_class::SimdSha1Hash2                 0      0.00%     72.41% # Class of executed instruction
system.cpu3.op_class::SimdSha256Hash                0      0.00%     72.41% # Class of executed instruction
system.cpu3.op_class::SimdSha256Hash2               0      0.00%     72.41% # Class of executed instruction
system.cpu3.op_class::SimdShaSigma2                 0      0.00%     72.41% # Class of executed instruction
system.cpu3.op_class::SimdShaSigma3                 0      0.00%     72.41% # Class of executed instruction
system.cpu3.op_class::SimdPredAlu                   0      0.00%     72.41% # Class of executed instruction
system.cpu3.op_class::MemRead                       7     24.14%     96.55% # Class of executed instruction
system.cpu3.op_class::MemWrite                      1      3.45%    100.00% # Class of executed instruction
system.cpu3.op_class::FloatMemRead                  0      0.00%    100.00% # Class of executed instruction
system.cpu3.op_class::FloatMemWrite                 0      0.00%    100.00% # Class of executed instruction
system.cpu3.op_class::IprAccess                     0      0.00%    100.00% # Class of executed instruction
system.cpu3.op_class::InstPrefetch                  0      0.00%    100.00% # Class of executed instruction
system.cpu3.op_class::total                        29                       # Class of executed instruction
system.cpu3.workload.numSyscalls                    0                       # Number of system calls
system.l3bus.snoop_filter.hit_multi_requests            0                       # Number of requests hitting in the snoop filter with multiple (>1) holders of the requested data.
system.l3bus.snoop_filter.hit_multi_snoops            0                       # Number of snoops hitting in the snoop filter with multiple (>1) holders of the requested data.
system.l3bus.snoop_filter.hit_single_requests      3027026                       # Number of requests hitting in the snoop filter with a single holder of the requested data.
system.l3bus.snoop_filter.hit_single_snoops            0                       # Number of snoops hitting in the snoop filter with a single holder of the requested data.
system.l3bus.snoop_filter.tot_requests        6076212                       # Total number of requests made to the snoop filter.
system.l3bus.snoop_filter.tot_snoops                0                       # Total number of snoops made to the snoop filter.
system.membus.snoop_filter.hit_multi_requests            0                       # Number of requests hitting in the snoop filter with multiple (>1) holders of the requested data.
system.membus.snoop_filter.hit_multi_snoops            0                       # Number of snoops hitting in the snoop filter with multiple (>1) holders of the requested data.
system.membus.snoop_filter.hit_single_requests      2462422                       # Number of requests hitting in the snoop filter with a single holder of the requested data.
system.membus.snoop_filter.hit_single_snoops            0                       # Number of snoops hitting in the snoop filter with a single holder of the requested data.
system.membus.snoop_filter.tot_requests       5004014                       # Total number of requests made to the snoop filter.
system.membus.snoop_filter.tot_snoops               0                       # Total number of snoops made to the snoop filter.
system.switch_cpus0.cc_regfile_reads          3068177                       # number of cc regfile reads
system.switch_cpus0.cc_regfile_writes         1452009                       # number of cc regfile writes
system.switch_cpus0.committedInsts           85404087                       # Number of Instructions Simulated
system.switch_cpus0.committedOps             93888586                       # Number of Ops (including micro ops) Simulated
system.switch_cpus0.cpi                      1.486206                       # CPI: Cycles Per Instruction
system.switch_cpus0.cpi_total                1.486206                       # CPI: Total CPI of All Threads
system.switch_cpus0.fp_regfile_reads        156883282                       # number of floating regfile reads
system.switch_cpus0.fp_regfile_writes        70780330                       # number of floating regfile writes
system.switch_cpus0.idleCycles                   8838                       # Total number of cycles that the CPU has spent unscheduled due to idling
system.switch_cpus0.iew.branchMispredicts         1849                       # Number of branch mispredicts detected at execute
system.switch_cpus0.iew.exec_branches          541596                       # Number of branches executed
system.switch_cpus0.iew.exec_nop                    0                       # number of nop insts executed
system.switch_cpus0.iew.exec_rate            0.883369                       # Inst execution rate
system.switch_cpus0.iew.exec_refs            55071274                       # number of memory reference insts executed
system.switch_cpus0.iew.exec_stores          10505154                       # Number of stores executed
system.switch_cpus0.iew.exec_swp                    0                       # number of swp insts executed
system.switch_cpus0.iew.iewBlockCycles       26464772                       # Number of cycles IEW is blocking
system.switch_cpus0.iew.iewDispLoadInsts     26392418                       # Number of dispatched load instructions
system.switch_cpus0.iew.iewDispNonSpecInsts            0                       # Number of dispatched non-speculative instructions
system.switch_cpus0.iew.iewDispSquashedInsts          122                       # Number of squashed instructions skipped by dispatch
system.switch_cpus0.iew.iewDispStoreInsts     10521187                       # Number of dispatched store instructions
system.switch_cpus0.iew.iewDispatchedInsts     93974486                       # Number of instructions dispatched to IQ
system.switch_cpus0.iew.iewExecLoadInsts     44566120                       # Number of load instructions executed
system.switch_cpus0.iew.iewExecSquashedInsts          865                       # Number of squashed instructions skipped in execute
system.switch_cpus0.iew.iewExecutedInsts    112124304                       # Number of executed instructions
system.switch_cpus0.iew.iewIQFullEvents        240533                       # Number of times the IQ has become full, causing a stall
system.switch_cpus0.iew.iewIdleCycles               0                       # Number of cycles IEW is idle
system.switch_cpus0.iew.iewLSQFullEvents     21288511                       # Number of times the LSQ has become full, causing a stall
system.switch_cpus0.iew.iewSquashCycles          2193                       # Number of cycles IEW is squashing
system.switch_cpus0.iew.iewUnblockCycles     21566105                       # Number of cycles IEW is unblocking
system.switch_cpus0.iew.memOrderViolationEvents          712                       # Number of memory order violations
system.switch_cpus0.iew.predictedNotTakenIncorrect         1831                       # Number of branches that were predicted not taken incorrectly
system.switch_cpus0.iew.predictedTakenIncorrect           18                       # Number of branches that were predicted taken incorrectly
system.switch_cpus0.iew.wb_consumers        129338251                       # num instructions consuming a value
system.switch_cpus0.iew.wb_count             93931100                       # cumulative count of insts written-back
system.switch_cpus0.iew.wb_fanout            0.534306                       # average fanout of values written-back
system.switch_cpus0.iew.wb_producers         69106230                       # num instructions producing a value
system.switch_cpus0.iew.wb_rate              0.740034                       # insts written-back per cycle
system.switch_cpus0.iew.wb_sent              93931669                       # cumulative count of insts sent to commit
system.switch_cpus0.int_regfile_reads       122135803                       # number of integer regfile reads
system.switch_cpus0.int_regfile_writes       12104683                       # number of integer regfile writes
system.switch_cpus0.ipc                      0.672854                       # IPC: Instructions Per Cycle
system.switch_cpus0.ipc_total                0.672854                       # IPC: Total IPC of All Threads
system.switch_cpus0.iq.FU_type_0::No_OpClass            0      0.00%      0.00% # Type of FU issued
system.switch_cpus0.iq.FU_type_0::IntAlu     13649261     12.17%     12.17% # Type of FU issued
system.switch_cpus0.iq.FU_type_0::IntMult            0      0.00%     12.17% # Type of FU issued
system.switch_cpus0.iq.FU_type_0::IntDiv            0      0.00%     12.17% # Type of FU issued
system.switch_cpus0.iq.FU_type_0::FloatAdd            0      0.00%     12.17% # Type of FU issued
system.switch_cpus0.iq.FU_type_0::FloatCmp            0      0.00%     12.17% # Type of FU issued
system.switch_cpus0.iq.FU_type_0::FloatCvt            0      0.00%     12.17% # Type of FU issued
system.switch_cpus0.iq.FU_type_0::FloatMult            0      0.00%     12.17% # Type of FU issued
system.switch_cpus0.iq.FU_type_0::FloatMultAcc            0      0.00%     12.17% # Type of FU issued
system.switch_cpus0.iq.FU_type_0::FloatDiv            0      0.00%     12.17% # Type of FU issued
system.switch_cpus0.iq.FU_type_0::FloatMisc            0      0.00%     12.17% # Type of FU issued
system.switch_cpus0.iq.FU_type_0::FloatSqrt            0      0.00%     12.17% # Type of FU issued
system.switch_cpus0.iq.FU_type_0::SimdAdd            0      0.00%     12.17% # Type of FU issued
system.switch_cpus0.iq.FU_type_0::SimdAddAcc            0      0.00%     12.17% # Type of FU issued
system.switch_cpus0.iq.FU_type_0::SimdAlu           14      0.00%     12.17% # Type of FU issued
system.switch_cpus0.iq.FU_type_0::SimdCmp            0      0.00%     12.17% # Type of FU issued
system.switch_cpus0.iq.FU_type_0::SimdCvt            0      0.00%     12.17% # Type of FU issued
system.switch_cpus0.iq.FU_type_0::SimdMisc            0      0.00%     12.17% # Type of FU issued
system.switch_cpus0.iq.FU_type_0::SimdMult            0      0.00%     12.17% # Type of FU issued
system.switch_cpus0.iq.FU_type_0::SimdMultAcc            0      0.00%     12.17% # Type of FU issued
system.switch_cpus0.iq.FU_type_0::SimdShift            0      0.00%     12.17% # Type of FU issued
system.switch_cpus0.iq.FU_type_0::SimdShiftAcc            0      0.00%     12.17% # Type of FU issued
system.switch_cpus0.iq.FU_type_0::SimdDiv            0      0.00%     12.17% # Type of FU issued
system.switch_cpus0.iq.FU_type_0::SimdSqrt            0      0.00%     12.17% # Type of FU issued
system.switch_cpus0.iq.FU_type_0::SimdFloatAdd     26711016     23.82%     36.00% # Type of FU issued
system.switch_cpus0.iq.FU_type_0::SimdFloatAlu            0      0.00%     36.00% # Type of FU issued
system.switch_cpus0.iq.FU_type_0::SimdFloatCmp            0      0.00%     36.00% # Type of FU issued
system.switch_cpus0.iq.FU_type_0::SimdFloatCvt            0      0.00%     36.00% # Type of FU issued
system.switch_cpus0.iq.FU_type_0::SimdFloatDiv       527136      0.47%     36.47% # Type of FU issued
system.switch_cpus0.iq.FU_type_0::SimdFloatMisc            0      0.00%     36.47% # Type of FU issued
system.switch_cpus0.iq.FU_type_0::SimdFloatMult     16165641     14.42%     50.88% # Type of FU issued
system.switch_cpus0.iq.FU_type_0::SimdFloatMultAcc            0      0.00%     50.88% # Type of FU issued
system.switch_cpus0.iq.FU_type_0::SimdFloatSqrt            0      0.00%     50.88% # Type of FU issued
system.switch_cpus0.iq.FU_type_0::SimdReduceAdd            0      0.00%     50.88% # Type of FU issued
system.switch_cpus0.iq.FU_type_0::SimdReduceAlu            0      0.00%     50.88% # Type of FU issued
system.switch_cpus0.iq.FU_type_0::SimdReduceCmp            0      0.00%     50.88% # Type of FU issued
system.switch_cpus0.iq.FU_type_0::SimdFloatReduceAdd            0      0.00%     50.88% # Type of FU issued
system.switch_cpus0.iq.FU_type_0::SimdFloatReduceCmp            0      0.00%     50.88% # Type of FU issued
system.switch_cpus0.iq.FU_type_0::SimdAes            0      0.00%     50.88% # Type of FU issued
system.switch_cpus0.iq.FU_type_0::SimdAesMix            0      0.00%     50.88% # Type of FU issued
system.switch_cpus0.iq.FU_type_0::SimdSha1Hash            0      0.00%     50.88% # Type of FU issued
system.switch_cpus0.iq.FU_type_0::SimdSha1Hash2            0      0.00%     50.88% # Type of FU issued
system.switch_cpus0.iq.FU_type_0::SimdSha256Hash            0      0.00%     50.88% # Type of FU issued
system.switch_cpus0.iq.FU_type_0::SimdSha256Hash2            0      0.00%     50.88% # Type of FU issued
system.switch_cpus0.iq.FU_type_0::SimdShaSigma2            0      0.00%     50.88% # Type of FU issued
system.switch_cpus0.iq.FU_type_0::SimdShaSigma3            0      0.00%     50.88% # Type of FU issued
system.switch_cpus0.iq.FU_type_0::SimdPredAlu            0      0.00%     50.88% # Type of FU issued
system.switch_cpus0.iq.FU_type_0::MemRead     15055788     13.43%     64.31% # Type of FU issued
system.switch_cpus0.iq.FU_type_0::MemWrite            8      0.00%     64.31% # Type of FU issued
system.switch_cpus0.iq.FU_type_0::FloatMemRead     29511153     26.32%     90.63% # Type of FU issued
system.switch_cpus0.iq.FU_type_0::FloatMemWrite     10505160      9.37%    100.00% # Type of FU issued
system.switch_cpus0.iq.FU_type_0::IprAccess            0      0.00%    100.00% # Type of FU issued
system.switch_cpus0.iq.FU_type_0::InstPrefetch            0      0.00%    100.00% # Type of FU issued
system.switch_cpus0.iq.FU_type_0::total     112125177                       # Type of FU issued
system.switch_cpus0.iq.fp_alu_accesses      101372222                       # Number of floating point alu accesses
system.switch_cpus0.iq.fp_inst_queue_reads    192876010                       # Number of floating instruction queue reads
system.switch_cpus0.iq.fp_inst_queue_wakeup_accesses     81285217                       # Number of floating instruction queue wakeup accesses
system.switch_cpus0.iq.fp_inst_queue_writes     81376753                       # Number of floating instruction queue writes
system.switch_cpus0.iq.fu_busy_cnt           12697963                       # FU busy when requested
system.switch_cpus0.iq.fu_busy_rate          0.113248                       # FU busy rate (busy events/executed inst)
system.switch_cpus0.iq.fu_full::No_OpClass            0      0.00%      0.00% # attempts to use FU when none available
system.switch_cpus0.iq.fu_full::IntAlu         171954      1.35%      1.35% # attempts to use FU when none available
system.switch_cpus0.iq.fu_full::IntMult             0      0.00%      1.35% # attempts to use FU when none available
system.switch_cpus0.iq.fu_full::IntDiv              0      0.00%      1.35% # attempts to use FU when none available
system.switch_cpus0.iq.fu_full::FloatAdd            0      0.00%      1.35% # attempts to use FU when none available
system.switch_cpus0.iq.fu_full::FloatCmp            0      0.00%      1.35% # attempts to use FU when none available
system.switch_cpus0.iq.fu_full::FloatCvt            0      0.00%      1.35% # attempts to use FU when none available
system.switch_cpus0.iq.fu_full::FloatMult            0      0.00%      1.35% # attempts to use FU when none available
system.switch_cpus0.iq.fu_full::FloatMultAcc            0      0.00%      1.35% # attempts to use FU when none available
system.switch_cpus0.iq.fu_full::FloatDiv            0      0.00%      1.35% # attempts to use FU when none available
system.switch_cpus0.iq.fu_full::FloatMisc            0      0.00%      1.35% # attempts to use FU when none available
system.switch_cpus0.iq.fu_full::FloatSqrt            0      0.00%      1.35% # attempts to use FU when none available
system.switch_cpus0.iq.fu_full::SimdAdd             0      0.00%      1.35% # attempts to use FU when none available
system.switch_cpus0.iq.fu_full::SimdAddAcc            0      0.00%      1.35% # attempts to use FU when none available
system.switch_cpus0.iq.fu_full::SimdAlu             0      0.00%      1.35% # attempts to use FU when none available
system.switch_cpus0.iq.fu_full::SimdCmp             0      0.00%      1.35% # attempts to use FU when none available
system.switch_cpus0.iq.fu_full::SimdCvt             0      0.00%      1.35% # attempts to use FU when none available
system.switch_cpus0.iq.fu_full::SimdMisc            0      0.00%      1.35% # attempts to use FU when none available
system.switch_cpus0.iq.fu_full::SimdMult            0      0.00%      1.35% # attempts to use FU when none available
system.switch_cpus0.iq.fu_full::SimdMultAcc            0      0.00%      1.35% # attempts to use FU when none available
system.switch_cpus0.iq.fu_full::SimdShift            0      0.00%      1.35% # attempts to use FU when none available
system.switch_cpus0.iq.fu_full::SimdShiftAcc            0      0.00%      1.35% # attempts to use FU when none available
system.switch_cpus0.iq.fu_full::SimdDiv             0      0.00%      1.35% # attempts to use FU when none available
system.switch_cpus0.iq.fu_full::SimdSqrt            0      0.00%      1.35% # attempts to use FU when none available
system.switch_cpus0.iq.fu_full::SimdFloatAdd      2056826     16.20%     17.55% # attempts to use FU when none available
system.switch_cpus0.iq.fu_full::SimdFloatAlu            0      0.00%     17.55% # attempts to use FU when none available
system.switch_cpus0.iq.fu_full::SimdFloatCmp            0      0.00%     17.55% # attempts to use FU when none available
system.switch_cpus0.iq.fu_full::SimdFloatCvt            0      0.00%     17.55% # attempts to use FU when none available
system.switch_cpus0.iq.fu_full::SimdFloatDiv            0      0.00%     17.55% # attempts to use FU when none available
system.switch_cpus0.iq.fu_full::SimdFloatMisc            0      0.00%     17.55% # attempts to use FU when none available
system.switch_cpus0.iq.fu_full::SimdFloatMult      1712582     13.49%     31.04% # attempts to use FU when none available
system.switch_cpus0.iq.fu_full::SimdFloatMultAcc            0      0.00%     31.04% # attempts to use FU when none available
system.switch_cpus0.iq.fu_full::SimdFloatSqrt            0      0.00%     31.04% # attempts to use FU when none available
system.switch_cpus0.iq.fu_full::SimdReduceAdd            0      0.00%     31.04% # attempts to use FU when none available
system.switch_cpus0.iq.fu_full::SimdReduceAlu            0      0.00%     31.04% # attempts to use FU when none available
system.switch_cpus0.iq.fu_full::SimdReduceCmp            0      0.00%     31.04% # attempts to use FU when none available
system.switch_cpus0.iq.fu_full::SimdFloatReduceAdd            0      0.00%     31.04% # attempts to use FU when none available
system.switch_cpus0.iq.fu_full::SimdFloatReduceCmp            0      0.00%     31.04% # attempts to use FU when none available
system.switch_cpus0.iq.fu_full::SimdAes             0      0.00%     31.04% # attempts to use FU when none available
system.switch_cpus0.iq.fu_full::SimdAesMix            0      0.00%     31.04% # attempts to use FU when none available
system.switch_cpus0.iq.fu_full::SimdSha1Hash            0      0.00%     31.04% # attempts to use FU when none available
system.switch_cpus0.iq.fu_full::SimdSha1Hash2            0      0.00%     31.04% # attempts to use FU when none available
system.switch_cpus0.iq.fu_full::SimdSha256Hash            0      0.00%     31.04% # attempts to use FU when none available
system.switch_cpus0.iq.fu_full::SimdSha256Hash2            0      0.00%     31.04% # attempts to use FU when none available
system.switch_cpus0.iq.fu_full::SimdShaSigma2            0      0.00%     31.04% # attempts to use FU when none available
system.switch_cpus0.iq.fu_full::SimdShaSigma3            0      0.00%     31.04% # attempts to use FU when none available
system.switch_cpus0.iq.fu_full::SimdPredAlu            0      0.00%     31.04% # attempts to use FU when none available
system.switch_cpus0.iq.fu_full::MemRead       2829247     22.28%     53.32% # attempts to use FU when none available
system.switch_cpus0.iq.fu_full::MemWrite            0      0.00%     53.32% # attempts to use FU when none available
system.switch_cpus0.iq.fu_full::FloatMemRead      5203010     40.98%     94.30% # attempts to use FU when none available
system.switch_cpus0.iq.fu_full::FloatMemWrite       724344      5.70%    100.00% # attempts to use FU when none available
system.switch_cpus0.iq.fu_full::IprAccess            0      0.00%    100.00% # attempts to use FU when none available
system.switch_cpus0.iq.fu_full::InstPrefetch            0      0.00%    100.00% # attempts to use FU when none available
system.switch_cpus0.iq.int_alu_accesses      23450918                       # Number of integer alu accesses
system.switch_cpus0.iq.int_inst_queue_reads    170992239                       # Number of integer instruction queue reads
system.switch_cpus0.iq.int_inst_queue_wakeup_accesses     12645883                       # Number of integer instruction queue wakeup accesses
system.switch_cpus0.iq.int_inst_queue_writes     12684247                       # Number of integer instruction queue writes
system.switch_cpus0.iq.iqInstsAdded          93974486                       # Number of instructions added to the IQ (excludes non-spec)
system.switch_cpus0.iq.iqInstsIssued        112125177                       # Number of instructions issued
system.switch_cpus0.iq.iqSquashedInstsExamined        85802                       # Number of squashed instructions iterated over during squash; mainly for profiling
system.switch_cpus0.iq.iqSquashedInstsIssued          751                       # Number of squashed instructions issued
system.switch_cpus0.iq.iqSquashedOperandsExamined       145439                       # Number of squashed operands that are examined and possibly removed from graph
system.switch_cpus0.iq.issued_per_cycle::samples    126919189                       # Number of insts issued each cycle
system.switch_cpus0.iq.issued_per_cycle::mean     0.883438                       # Number of insts issued each cycle
system.switch_cpus0.iq.issued_per_cycle::stdev     1.996828                       # Number of insts issued each cycle
system.switch_cpus0.iq.issued_per_cycle::underflows            0      0.00%      0.00% # Number of insts issued each cycle
system.switch_cpus0.iq.issued_per_cycle::0    101554997     80.02%     80.02% # Number of insts issued each cycle
system.switch_cpus0.iq.issued_per_cycle::1      2710189      2.14%     82.15% # Number of insts issued each cycle
system.switch_cpus0.iq.issued_per_cycle::2      2756451      2.17%     84.32% # Number of insts issued each cycle
system.switch_cpus0.iq.issued_per_cycle::3      2269393      1.79%     86.11% # Number of insts issued each cycle
system.switch_cpus0.iq.issued_per_cycle::4      6058869      4.77%     90.88% # Number of insts issued each cycle
system.switch_cpus0.iq.issued_per_cycle::5      3854063      3.04%     93.92% # Number of insts issued each cycle
system.switch_cpus0.iq.issued_per_cycle::6      2950011      2.32%     96.25% # Number of insts issued each cycle
system.switch_cpus0.iq.issued_per_cycle::7      2233678      1.76%     98.01% # Number of insts issued each cycle
system.switch_cpus0.iq.issued_per_cycle::8      2531538      1.99%    100.00% # Number of insts issued each cycle
system.switch_cpus0.iq.issued_per_cycle::overflows            0      0.00%    100.00% # Number of insts issued each cycle
system.switch_cpus0.iq.issued_per_cycle::min_value            0                       # Number of insts issued each cycle
system.switch_cpus0.iq.issued_per_cycle::max_value            8                       # Number of insts issued each cycle
system.switch_cpus0.iq.issued_per_cycle::total    126919189                       # Number of insts issued each cycle
system.switch_cpus0.iq.rate                  0.883376                       # Inst issue rate
system.switch_cpus0.iq.vec_alu_accesses             0                       # Number of vector alu accesses
system.switch_cpus0.iq.vec_inst_queue_reads            0                       # Number of vector instruction queue reads
system.switch_cpus0.iq.vec_inst_queue_wakeup_accesses            0                       # Number of vector instruction queue wakeup accesses
system.switch_cpus0.iq.vec_inst_queue_writes            0                       # Number of vector instruction queue writes
system.switch_cpus0.memDep0.conflictingLoads       898839                       # Number of conflicting loads.
system.switch_cpus0.memDep0.conflictingStores       249740                       # Number of conflicting stores.
system.switch_cpus0.memDep0.insertedLoads     26392418                       # Number of loads inserted to the mem dependence unit.
system.switch_cpus0.memDep0.insertedStores     10521187                       # Number of stores inserted to the mem dependence unit.
system.switch_cpus0.misc_regfile_reads       57911931                       # number of misc regfile reads
system.switch_cpus0.misc_regfile_writes             1                       # number of misc regfile writes
system.switch_cpus0.numCycles               126928027                       # number of cpu cycles simulated
system.switch_cpus0.numWorkItemsCompleted            0                       # number of work items this cpu completed
system.switch_cpus0.numWorkItemsStarted             0                       # number of work items this cpu started
system.switch_cpus0.timesIdled                     39                       # Number of times that the entire CPU went into an idle state and unscheduled itself
system.switch_cpus1.cc_regfile_reads         81404130                       # number of cc regfile reads
system.switch_cpus1.cc_regfile_writes        33100771                       # number of cc regfile writes
system.switch_cpus1.committedInsts           53865004                       # Number of Instructions Simulated
system.switch_cpus1.committedOps             92805775                       # Number of Ops (including micro ops) Simulated
system.switch_cpus1.cpi                      2.356410                       # CPI: Cycles Per Instruction
system.switch_cpus1.cpi_total                2.356410                       # CPI: Total CPI of All Threads
system.switch_cpus1.fp_regfile_writes              56                       # number of floating regfile writes
system.switch_cpus1.idleCycles                  11892                       # Total number of cycles that the CPU has spent unscheduled due to idling
system.switch_cpus1.iew.branchMispredicts      1259681                       # Number of branch mispredicts detected at execute
system.switch_cpus1.iew.exec_branches        21520944                       # Number of branches executed
system.switch_cpus1.iew.exec_nop                    0                       # number of nop insts executed
system.switch_cpus1.iew.exec_rate            1.165261                       # Inst execution rate
system.switch_cpus1.iew.exec_refs            36757816                       # number of memory reference insts executed
system.switch_cpus1.iew.exec_stores           7662992                       # Number of stores executed
system.switch_cpus1.iew.exec_swp                    0                       # number of swp insts executed
system.switch_cpus1.iew.iewBlockCycles       68991435                       # Number of cycles IEW is blocking
system.switch_cpus1.iew.iewDispLoadInsts     33380537                       # Number of dispatched load instructions
system.switch_cpus1.iew.iewDispNonSpecInsts            0                       # Number of dispatched non-speculative instructions
system.switch_cpus1.iew.iewDispSquashedInsts        45224                       # Number of squashed instructions skipped by dispatch
system.switch_cpus1.iew.iewDispStoreInsts      8630526                       # Number of dispatched store instructions
system.switch_cpus1.iew.iewDispatchedInsts    168627209                       # Number of instructions dispatched to IQ
system.switch_cpus1.iew.iewExecLoadInsts     29094824                       # Number of load instructions executed
system.switch_cpus1.iew.iewExecSquashedInsts      3793571                       # Number of squashed instructions skipped in execute
system.switch_cpus1.iew.iewExecutedInsts    147904297                       # Number of executed instructions
system.switch_cpus1.iew.iewIQFullEvents        170284                       # Number of times the IQ has become full, causing a stall
system.switch_cpus1.iew.iewIdleCycles               0                       # Number of cycles IEW is idle
system.switch_cpus1.iew.iewLSQFullEvents      6196082                       # Number of times the LSQ has become full, causing a stall
system.switch_cpus1.iew.iewSquashCycles       1218188                       # Number of cycles IEW is squashing
system.switch_cpus1.iew.iewUnblockCycles      6513043                       # Number of cycles IEW is unblocking
system.switch_cpus1.iew.memOrderViolationEvents         3089                       # Number of memory order violations
system.switch_cpus1.iew.predictedNotTakenIncorrect       688931                       # Number of branches that were predicted not taken incorrectly
system.switch_cpus1.iew.predictedTakenIncorrect       570750                       # Number of branches that were predicted taken incorrectly
system.switch_cpus1.iew.wb_consumers        154460965                       # num instructions consuming a value
system.switch_cpus1.iew.wb_count            146127763                       # cumulative count of insts written-back
system.switch_cpus1.iew.wb_fanout            0.655386                       # average fanout of values written-back
system.switch_cpus1.iew.wb_producers        101231533                       # num instructions producing a value
system.switch_cpus1.iew.wb_rate              1.151265                       # insts written-back per cycle
system.switch_cpus1.iew.wb_sent             147125645                       # cumulative count of insts sent to commit
system.switch_cpus1.int_regfile_reads       211888531                       # number of integer regfile reads
system.switch_cpus1.int_regfile_writes      118793746                       # number of integer regfile writes
system.switch_cpus1.ipc                      0.424374                       # IPC: Instructions Per Cycle
system.switch_cpus1.ipc_total                0.424374                       # IPC: Total IPC of All Threads
system.switch_cpus1.iq.FU_type_0::No_OpClass        62564      0.04%      0.04% # Type of FU issued
system.switch_cpus1.iq.FU_type_0::IntAlu    112747147     74.32%     74.36% # Type of FU issued
system.switch_cpus1.iq.FU_type_0::IntMult       153738      0.10%     74.47% # Type of FU issued
system.switch_cpus1.iq.FU_type_0::IntDiv       388422      0.26%     74.72% # Type of FU issued
system.switch_cpus1.iq.FU_type_0::FloatAdd            0      0.00%     74.72% # Type of FU issued
system.switch_cpus1.iq.FU_type_0::FloatCmp            0      0.00%     74.72% # Type of FU issued
system.switch_cpus1.iq.FU_type_0::FloatCvt            0      0.00%     74.72% # Type of FU issued
system.switch_cpus1.iq.FU_type_0::FloatMult            0      0.00%     74.72% # Type of FU issued
system.switch_cpus1.iq.FU_type_0::FloatMultAcc            0      0.00%     74.72% # Type of FU issued
system.switch_cpus1.iq.FU_type_0::FloatDiv            0      0.00%     74.72% # Type of FU issued
system.switch_cpus1.iq.FU_type_0::FloatMisc            0      0.00%     74.72% # Type of FU issued
system.switch_cpus1.iq.FU_type_0::FloatSqrt            0      0.00%     74.72% # Type of FU issued
system.switch_cpus1.iq.FU_type_0::SimdAdd            0      0.00%     74.72% # Type of FU issued
system.switch_cpus1.iq.FU_type_0::SimdAddAcc            0      0.00%     74.72% # Type of FU issued
system.switch_cpus1.iq.FU_type_0::SimdAlu            0      0.00%     74.72% # Type of FU issued
system.switch_cpus1.iq.FU_type_0::SimdCmp            0      0.00%     74.72% # Type of FU issued
system.switch_cpus1.iq.FU_type_0::SimdCvt            0      0.00%     74.72% # Type of FU issued
system.switch_cpus1.iq.FU_type_0::SimdMisc            0      0.00%     74.72% # Type of FU issued
system.switch_cpus1.iq.FU_type_0::SimdMult            0      0.00%     74.72% # Type of FU issued
system.switch_cpus1.iq.FU_type_0::SimdMultAcc            0      0.00%     74.72% # Type of FU issued
system.switch_cpus1.iq.FU_type_0::SimdShift            0      0.00%     74.72% # Type of FU issued
system.switch_cpus1.iq.FU_type_0::SimdShiftAcc            0      0.00%     74.72% # Type of FU issued
system.switch_cpus1.iq.FU_type_0::SimdDiv            0      0.00%     74.72% # Type of FU issued
system.switch_cpus1.iq.FU_type_0::SimdSqrt            0      0.00%     74.72% # Type of FU issued
system.switch_cpus1.iq.FU_type_0::SimdFloatAdd            0      0.00%     74.72% # Type of FU issued
system.switch_cpus1.iq.FU_type_0::SimdFloatAlu            0      0.00%     74.72% # Type of FU issued
system.switch_cpus1.iq.FU_type_0::SimdFloatCmp            0      0.00%     74.72% # Type of FU issued
system.switch_cpus1.iq.FU_type_0::SimdFloatCvt            0      0.00%     74.72% # Type of FU issued
system.switch_cpus1.iq.FU_type_0::SimdFloatDiv            0      0.00%     74.72% # Type of FU issued
system.switch_cpus1.iq.FU_type_0::SimdFloatMisc            0      0.00%     74.72% # Type of FU issued
system.switch_cpus1.iq.FU_type_0::SimdFloatMult            0      0.00%     74.72% # Type of FU issued
system.switch_cpus1.iq.FU_type_0::SimdFloatMultAcc            0      0.00%     74.72% # Type of FU issued
system.switch_cpus1.iq.FU_type_0::SimdFloatSqrt            0      0.00%     74.72% # Type of FU issued
system.switch_cpus1.iq.FU_type_0::SimdReduceAdd            0      0.00%     74.72% # Type of FU issued
system.switch_cpus1.iq.FU_type_0::SimdReduceAlu            0      0.00%     74.72% # Type of FU issued
system.switch_cpus1.iq.FU_type_0::SimdReduceCmp            0      0.00%     74.72% # Type of FU issued
system.switch_cpus1.iq.FU_type_0::SimdFloatReduceAdd            0      0.00%     74.72% # Type of FU issued
system.switch_cpus1.iq.FU_type_0::SimdFloatReduceCmp            0      0.00%     74.72% # Type of FU issued
system.switch_cpus1.iq.FU_type_0::SimdAes            0      0.00%     74.72% # Type of FU issued
system.switch_cpus1.iq.FU_type_0::SimdAesMix            0      0.00%     74.72% # Type of FU issued
system.switch_cpus1.iq.FU_type_0::SimdSha1Hash            0      0.00%     74.72% # Type of FU issued
system.switch_cpus1.iq.FU_type_0::SimdSha1Hash2            0      0.00%     74.72% # Type of FU issued
system.switch_cpus1.iq.FU_type_0::SimdSha256Hash            0      0.00%     74.72% # Type of FU issued
system.switch_cpus1.iq.FU_type_0::SimdSha256Hash2            0      0.00%     74.72% # Type of FU issued
system.switch_cpus1.iq.FU_type_0::SimdShaSigma2            0      0.00%     74.72% # Type of FU issued
[...]
system.switch_cpus3.commit.numCommittedDist::stdev     3.231416                       # Number of insts commited each cycle
system.switch_cpus3.commit.numCommittedDist::underflows            0      0.00%      0.00% # Number of insts commited each cycle
system.switch_cpus3.commit.numCommittedDist::0     18745279     16.85%     16.85% # Number of insts commited each cycle
system.switch_cpus3.commit.numCommittedDist::1     17230714     15.49%     32.34% # Number of insts commited each cycle
system.switch_cpus3.commit.numCommittedDist::2      5627095      5.06%     37.39% # Number of insts commited each cycle
system.switch_cpus3.commit.numCommittedDist::3     11948810     10.74%     48.13% # Number of insts commited each cycle
system.switch_cpus3.commit.numCommittedDist::4      3984727      3.58%     51.71% # Number of insts commited each cycle
system.switch_cpus3.commit.numCommittedDist::5      5930666      5.33%     57.04% # Number of insts commited each cycle
system.switch_cpus3.commit.numCommittedDist::6      4711047      4.23%     61.28% # Number of insts commited each cycle
system.switch_cpus3.commit.numCommittedDist::7      4544532      4.08%     65.36% # Number of insts commited each cycle
system.switch_cpus3.commit.numCommittedDist::8     38536138     34.64%    100.00% # Number of insts commited each cycle
system.switch_cpus3.commit.numCommittedDist::overflows            0      0.00%    100.00% # Number of insts commited each cycle
system.switch_cpus3.commit.numCommittedDist::min_value            0                       # Number of insts commited each cycle
system.switch_cpus3.commit.numCommittedDist::max_value            8                       # Number of insts commited each cycle
system.switch_cpus3.commit.numCommittedDist::total    111259008                       # Number of insts commited each cycle
system.switch_cpus3.commit.instsCommitted    250000000                       # Number of instructions committed
system.switch_cpus3.commit.opsCommitted     478290682                       # Number of ops (including micro ops) committed
system.switch_cpus3.commit.memRefs          124129191                       # Number of memory references committed
system.switch_cpus3.commit.loads             87057745                       # Number of loads committed
system.switch_cpus3.commit.amos                     0                       # Number of atomic instructions committed
system.switch_cpus3.commit.membars                  0                       # Number of memory barriers committed
system.switch_cpus3.commit.branches          45560199                       # Number of branches committed
system.switch_cpus3.commit.vector                   0                       # Number of committed Vector instructions.
system.switch_cpus3.commit.floating            114136                       # Number of committed floating point instructions.
system.switch_cpus3.commit.integer          475927659                       # Number of committed integer instructions.
system.switch_cpus3.commit.functionCalls       139734                       # Number of function calls committed.
system.switch_cpus3.commit.committedInstType_0::No_OpClass       975197      0.20%      0.20% # Class of committed instruction
system.switch_cpus3.commit.committedInstType_0::IntAlu    348981739     72.96%     73.17% # Class of committed instruction
system.switch_cpus3.commit.committedInstType_0::IntMult      3980940      0.83%     74.00% # Class of committed instruction
system.switch_cpus3.commit.committedInstType_0::IntDiv       223615      0.05%     74.05% # Class of committed instruction
system.switch_cpus3.commit.committedInstType_0::FloatAdd            0      0.00%     74.05% # Class of committed instruction
system.switch_cpus3.commit.committedInstType_0::FloatCmp            0      0.00%     74.05% # Class of committed instruction
system.switch_cpus3.commit.committedInstType_0::FloatCvt            0      0.00%     74.05% # Class of committed instruction
system.switch_cpus3.commit.committedInstType_0::FloatMult            0      0.00%     74.05% # Class of committed instruction
system.switch_cpus3.commit.committedInstType_0::FloatMultAcc            0      0.00%     74.05% # Class of committed instruction
system.switch_cpus3.commit.committedInstType_0::FloatDiv            0      0.00%     74.05% # Class of committed instruction
system.switch_cpus3.commit.committedInstType_0::FloatMisc            0      0.00%     74.05% # Class of committed instruction
system.switch_cpus3.commit.committedInstType_0::FloatSqrt            0      0.00%     74.05% # Class of committed instruction
system.switch_cpus3.commit.committedInstType_0::SimdAdd            0      0.00%     74.05% # Class of committed instruction
system.switch_cpus3.commit.committedInstType_0::SimdAddAcc            0      0.00%     74.05% # Class of committed instruction
system.switch_cpus3.commit.committedInstType_0::SimdAlu            0      0.00%     74.05% # Class of committed instruction
system.switch_cpus3.commit.committedInstType_0::SimdCmp            0      0.00%     74.05% # Class of committed instruction
system.switch_cpus3.commit.committedInstType_0::SimdCvt            0      0.00%     74.05% # Class of committed instruction
system.switch_cpus3.commit.committedInstType_0::SimdMisc            0      0.00%     74.05% # Class of committed instruction
system.switch_cpus3.commit.committedInstType_0::SimdMult            0      0.00%     74.05% # Class of committed instruction
system.switch_cpus3.commit.committedInstType_0::SimdMultAcc            0      0.00%     74.05% # Class of committed instruction
system.switch_cpus3.commit.committedInstType_0::SimdShift            0      0.00%     74.05% # Class of committed instruction
system.switch_cpus3.commit.committedInstType_0::SimdShiftAcc            0      0.00%     74.05% # Class of committed instruction
system.switch_cpus3.commit.committedInstType_0::SimdDiv            0      0.00%     74.05% # Class of committed instruction
system.switch_cpus3.commit.committedInstType_0::SimdSqrt            0      0.00%     74.05% # Class of committed instruction
system.switch_cpus3.commit.committedInstType_0::SimdFloatAdd            0      0.00%     74.05% # Class of committed instruction
system.switch_cpus3.commit.committedInstType_0::SimdFloatAlu            0      0.00%     74.05% # Class of committed instruction
system.switch_cpus3.commit.committedInstType_0::SimdFloatCmp            0      0.00%     74.05% # Class of committed instruction
system.switch_cpus3.commit.committedInstType_0::SimdFloatCvt            0      0.00%     74.05% # Class of committed instruction
system.switch_cpus3.commit.committedInstType_0::SimdFloatDiv            0      0.00%     74.05% # Class of committed instruction
system.switch_cpus3.commit.committedInstType_0::SimdFloatMisc            0      0.00%     74.05% # Class of committed instruction
system.switch_cpus3.commit.committedInstType_0::SimdFloatMult            0      0.00%     74.05% # Class of committed instruction
system.switch_cpus3.commit.committedInstType_0::SimdFloatMultAcc            0      0.00%     74.05% # Class of committed instruction
system.switch_cpus3.commit.committedInstType_0::SimdFloatSqrt            0      0.00%     74.05% # Class of committed instruction
system.switch_cpus3.commit.committedInstType_0::SimdReduceAdd            0      0.00%     74.05% # Class of committed instruction
system.switch_cpus3.commit.committedInstType_0::SimdReduceAlu            0      0.00%     74.05% # Class of committed instruction
system.switch_cpus3.commit.committedInstType_0::SimdReduceCmp            0      0.00%     74.05% # Class of committed instruction
system.switch_cpus3.commit.committedInstType_0::SimdFloatReduceAdd            0      0.00%     74.05% # Class of committed instruction
system.switch_cpus3.commit.committedInstType_0::SimdFloatReduceCmp            0      0.00%     74.05% # Class of committed instruction
system.switch_cpus3.commit.committedInstType_0::SimdAes            0      0.00%     74.05% # Class of committed instruction
system.switch_cpus3.commit.committedInstType_0::SimdAesMix            0      0.00%     74.05% # Class of committed instruction
system.switch_cpus3.commit.committedInstType_0::SimdSha1Hash            0      0.00%     74.05% # Class of committed instruction
system.switch_cpus3.commit.committedInstType_0::SimdSha1Hash2            0      0.00%     74.05% # Class of committed instruction
system.switch_cpus3.commit.committedInstType_0::SimdSha256Hash            0      0.00%     74.05% # Class of committed instruction
system.switch_cpus3.commit.committedInstType_0::SimdSha256Hash2            0      0.00%     74.05% # Class of committed instruction
system.switch_cpus3.commit.committedInstType_0::SimdShaSigma2            0      0.00%     74.05% # Class of committed instruction
system.switch_cpus3.commit.committedInstType_0::SimdShaSigma3            0      0.00%     74.05% # Class of committed instruction
system.switch_cpus3.commit.committedInstType_0::SimdPredAlu            0      0.00%     74.05% # Class of committed instruction
system.switch_cpus3.commit.committedInstType_0::MemRead     87000761     18.19%     92.24% # Class of committed instruction
system.switch_cpus3.commit.committedInstType_0::MemWrite     37014294      7.74%     99.98% # Class of committed instruction
system.switch_cpus3.commit.committedInstType_0::FloatMemRead        56984      0.01%     99.99% # Class of committed instruction
system.switch_cpus3.commit.committedInstType_0::FloatMemWrite        57152      0.01%    100.00% # Class of committed instruction
system.switch_cpus3.commit.committedInstType_0::IprAccess            0      0.00%    100.00% # Class of committed instruction
system.switch_cpus3.commit.committedInstType_0::InstPrefetch            0      0.00%    100.00% # Class of committed instruction
system.switch_cpus3.commit.committedInstType_0::total    478290682                       # Class of committed instruction
system.switch_cpus3.commit.commitEligibleSamples     38536138                       # number cycles where commit BW limit reached
system.switch_cpus3.decode.idleCycles         9670953                       # Number of cycles decode is idle
system.switch_cpus3.decode.blockedCycles     22175393                       # Number of cycles decode is blocked
system.switch_cpus3.decode.runCycles         84030894                       # Number of cycles decode is running
system.switch_cpus3.decode.unblockCycles      8457960                       # Number of cycles decode is unblocking
system.switch_cpus3.decode.squashCycles       1900210                       # Number of cycles decode is squashing
system.switch_cpus3.decode.branchResolved     34293547                       # Number of times decode resolved a  branch
system.switch_cpus3.decode.branchMispred       109351                       # Number of times decode detected a branch misprediction
system.switch_cpus3.decode.decodedInsts     622481642                       # Number of instructions handled by decode
system.switch_cpus3.decode.squashedInsts       444321                       # Number of squashed instructions handled by decode
system.switch_cpus3.dtb.rdAccesses          104583880                       # TLB accesses on read requests
system.switch_cpus3.dtb.wrAccesses           39859957                       # TLB accesses on write requests
system.switch_cpus3.dtb.rdMisses                   93                       # TLB misses on read requests
system.switch_cpus3.dtb.wrMisses                    3                       # TLB misses on write requests
system.switch_cpus3.dtb.walker.power_state.pwrStateResidencyTicks::UNDEFINED 13761319581657                       # Cumulative time (in ticks) in various power states
system.switch_cpus3.fetch.icacheStallCycles      2208210                       # Number of cycles fetch is stalled on an Icache miss
system.switch_cpus3.fetch.insts             338872917                       # Number of instructions fetch has processed
system.switch_cpus3.fetch.branches           61404678                       # Number of branches that fetch encountered
system.switch_cpus3.fetch.predictedBranches     36031859                       # Number of branches that fetch has predicted taken
system.switch_cpus3.fetch.cycles            122020162                       # Number of cycles fetch has run and was not squashing or blocked
system.switch_cpus3.fetch.squashCycles        4014088                       # Number of cycles fetch has spent squashing
system.switch_cpus3.fetch.cacheLines         45365773                       # Number of cache lines fetched
system.switch_cpus3.fetch.icacheSquashes        15144                       # Number of outstanding Icache misses that were squashed
system.switch_cpus3.fetch.nisnDist::samples    126235416                       # Number of instructions fetched each cycle (Total)
system.switch_cpus3.fetch.nisnDist::mean     5.143251                       # Number of instructions fetched each cycle (Total)
system.switch_cpus3.fetch.nisnDist::stdev     3.086897                       # Number of instructions fetched each cycle (Total)
system.switch_cpus3.fetch.nisnDist::underflows            0      0.00%      0.00% # Number of instructions fetched each cycle (Total)
system.switch_cpus3.fetch.nisnDist::0        17917601     14.19%     14.19% # Number of instructions fetched each cycle (Total)
system.switch_cpus3.fetch.nisnDist::1         8696349      6.89%     21.08% # Number of instructions fetched each cycle (Total)
system.switch_cpus3.fetch.nisnDist::2         4749668      3.76%     24.85% # Number of instructions fetched each cycle (Total)
system.switch_cpus3.fetch.nisnDist::3        10901348      8.64%     33.48% # Number of instructions fetched each cycle (Total)
system.switch_cpus3.fetch.nisnDist::4         6913846      5.48%     38.96% # Number of instructions fetched each cycle (Total)
system.switch_cpus3.fetch.nisnDist::5         7767563      6.15%     45.11% # Number of instructions fetched each cycle (Total)
system.switch_cpus3.fetch.nisnDist::6         6877000      5.45%     50.56% # Number of instructions fetched each cycle (Total)
system.switch_cpus3.fetch.nisnDist::7         8690853      6.88%     57.44% # Number of instructions fetched each cycle (Total)
system.switch_cpus3.fetch.nisnDist::8        53721188     42.56%    100.00% # Number of instructions fetched each cycle (Total)
system.switch_cpus3.fetch.nisnDist::overflows            0      0.00%    100.00% # Number of instructions fetched each cycle (Total)
system.switch_cpus3.fetch.nisnDist::min_value            0                       # Number of instructions fetched each cycle (Total)
system.switch_cpus3.fetch.nisnDist::max_value            8                       # Number of instructions fetched each cycle (Total)
system.switch_cpus3.fetch.nisnDist::total    126235416                       # Number of instructions fetched each cycle (Total)
system.switch_cpus3.fetch.branchRate         0.483776                       # Number of branch fetches per cycle
system.switch_cpus3.fetch.rate               2.669804                       # Number of inst fetches per cycle
system.switch_cpus3.itb.rdAccesses                  0                       # TLB accesses on read requests
system.switch_cpus3.itb.wrAccesses           45365773                       # TLB accesses on write requests
system.switch_cpus3.itb.rdMisses                    0                       # TLB misses on read requests
system.switch_cpus3.itb.wrMisses                   33                       # TLB misses on write requests
system.switch_cpus3.itb.walker.power_state.pwrStateResidencyTicks::UNDEFINED 13761319581657                       # Cumulative time (in ticks) in various power states
system.switch_cpus3.lsq0.forwLoads           11556942                       # Number of loads that had data forwarded from stores
system.switch_cpus3.lsq0.squashedLoads       25039407                       # Number of loads squashed
system.switch_cpus3.lsq0.ignoredResponses         3171                       # Number of memory responses ignored because the instruction is squashed
system.switch_cpus3.lsq0.memOrderViolation        46206                       # Number of memory ordering violations
system.switch_cpus3.lsq0.squashedStores       8066152                       # Number of stores squashed
system.switch_cpus3.lsq0.rescheduledLoads           30                       # Number of loads that were rescheduled
system.switch_cpus3.lsq0.blockedByCache             0                       # Number of times an access to memory failed due to the cache being blocked
system.switch_cpus3.power_state.pwrStateResidencyTicks::OFF  42267043647                       # Cumulative time (in ticks) in various power states
system.switch_cpus3.rename.squashCycles       1900210                       # Number of cycles rename is squashing
system.switch_cpus3.rename.idleCycles        13639740                       # Number of cycles rename is idle
system.switch_cpus3.rename.blockCycles       13116740                       # Number of cycles rename is blocking
system.switch_cpus3.rename.serializeStallCycles            0                       # count of cycles rename stalledfor serializing inst
system.switch_cpus3.rename.runCycles         88251487                       # Number of cycles rename is running
system.switch_cpus3.rename.unblockCycles      9327233                       # Number of cycles rename is unblocking
system.switch_cpus3.rename.renamedInsts     610819963                       # Number of instructions processed by rename
system.switch_cpus3.rename.ROBFullEvents        41301                       # Number of times rename has blocked due to ROB full
system.switch_cpus3.rename.IQFullEvents       2452880                       # Number of times rename has blocked due to IQ full
system.switch_cpus3.rename.LQFullEvents       5047360                       # Number of times rename has blocked due to LQ full
system.switch_cpus3.rename.SQFullEvents         61446                       # Number of times rename has blocked due to SQ full
system.switch_cpus3.rename.renamedOperands    788666152                       # Number of destination operands rename has renamed
system.switch_cpus3.rename.lookups         1499439900                       # Number of register rename lookups that rename has made
system.switch_cpus3.rename.intLookups       905486748                       # Number of integer rename lookups
system.switch_cpus3.rename.fpLookups            59272                       # Number of floating rename lookups
system.switch_cpus3.rename.committedMaps    616822803                       # Number of HB maps that are committed
system.switch_cpus3.rename.undoneMaps       171843208                       # Number of HB maps that are undone due to squashing
system.switch_cpus3.rename.serializing              0                       # count of serializing insts renamed
system.switch_cpus3.rename.tempSerializing            0                       # count of temporary serializing insts renamed
system.switch_cpus3.rename.skidInsts         29216932                       # count of insts added to the skid buffer
system.switch_cpus3.rob.reads               662705393                       # The number of ROB reads
system.switch_cpus3.rob.writes             1194974293                       # The number of ROB writes
system.switch_cpus3.thread0.numInsts        250000000                       # Number of Instructions committed
system.switch_cpus3.thread0.numOps          478290682                       # Number of Ops committed
system.switch_cpus3.thread0.numMemRefs              0                       # Number of Memory References
system.voltage_domain.voltage                       1                       # Voltage in Volts

---------- End Simulation Statistics   ----------
