Command line:
./runscript_pride.sh mix15 AE.BASELINE.4C 4 2017
Global frequency set at 1000000000000 ticks per second
DRAM config: RowsPerBank: 65536, BanksPerRank: 32, RanksPerChannel: 1
warn: Sockets disabled, not accepting gdb connections
warn: CoherentXBar system.cpu0.mmucache.mmubus has no snooping ports attached!
warn: CoherentXBar system.cpu1.mmucache.mmubus has no snooping ports attached!
warn: CoherentXBar system.cpu2.mmucache.mmubus has no snooping ports attached!
warn: CoherentXBar system.cpu3.mmucache.mmubus has no snooping ports attached!
warn: Checkpoints for file descriptors currently do not work.
warn: Checkpoints for file descriptors currently do not work.
warn: Checkpoints for file descriptors currently do not work.
warn: Checkpoints for file descriptors currently do not work.
gem5 Simulator System.  http://gem5.org
gem5 is copyrighted software; use the --copyright option for details.

gem5 version 20.1.0.5
gem5 compiled Jul 12 2024 12:42:38
gem5 started Jul 17 2024 12:52:00
gem5 executing on a07dda8b130c, pid 86987
command line: /home/user/PrIDE/performance/gem5/build/X86/gem5.opt --outdir=/home/user/PrIDE/performance/gem5/stats/pride_multiprogram_16GBmem_250Mn.SPEC2017.C4/AE.BASELINE.4C/mix15 /home/user/PrIDE/performance/gem5/configs/example/se_rq_spec_config_multicore.py --redirects /lib64=/home/utils/gcc-6.2.0/lib64 --benchmark=mix15 --benchmark_stdout=/home/user/PrIDE/performance/gem5/stats/pride_multiprogram_16GBmem_250Mn.SPEC2017.C4/AE.BASELINE.4C/mix15/mix15.out --benchmark_stderr=/home/user/PrIDE/performance/gem5/stats/pride_multiprogram_16GBmem_250Mn.SPEC2017.C4/AE.BASELINE.4C/mix15/mix15.err --spec-version=2017 --num-cpus=4 --mem-size=16GB --mem-type=DDR5_2400_32x4 --mem-ranks=1 --checkpoint-dir=/home/user/PrIDE/performance/gem5/cpts/multiprogram_16GBmem_25Bn.SPEC2017.C4/mix15-1-ref-x86 --checkpoint-restore=25000000000 --at-instruction --cpu-type DerivO3CPU --caches --l2cache --l1d_size=32kB --l1i_size=32kB --l2_size=256kB --l1d_assoc=8 --l1i_assoc=8 --l2_assoc=16 --maxinsts=250000000 --prog-interval=300Hz

info: Standard input is not a terminal, disabling listeners.
Benchmark- 0   cactuBSSN
Selected benchmark
--> cactuBSSN
CMD: ['/opt/spec2017/benchspec/CPU/507.cactuBSSN_r/run/run_base_refrate_gem5_se-m64.0000/cactusBSSN_r_base.gem5_se-m64', '/opt/spec2017/benchspec/CPU/507.cactuBSSN_r/run/run_base_refrate_gem5_se-m64.0000/spec_ref.par']
CWD: /opt/spec2017/benchspec/CPU/507.cactuBSSN_r/run/run_base_refrate_gem5_se-m64.0000/
Process stdout file: /home/user/PrIDE/performance/gem5/stats/pride_multiprogram_16GBmem_250Mn.SPEC2017.C4/AE.BASELINE.4C/mix15/mix15.out_0
Process stderr file: /home/user/PrIDE/performance/gem5/stats/pride_multiprogram_16GBmem_250Mn.SPEC2017.C4/AE.BASELINE.4C/mix15/mix15.err_0
Benchmark- 1   xz
Selected benchmark
--> xz
CMD: ['/opt/spec2017/benchspec/CPU/557.xz_r/run/run_base_refrate_gem5_se-m64.0000/xz_r_base.gem5_se-m64', '/opt/spec2017/benchspec/CPU/557.xz_r/run/run_base_refrate_gem5_se-m64.0000/cld.tar.xz', '160', '19cf30ae51eddcbefda78dd06014b4b96281456e078ca7c13e1c0c9e6aaea8dff3efb4ad6b0456697718cede6bd5454852652806a657bb56e07d61128434b474', '59796407', '61004416', '6']
CWD: /opt/spec2017/benchspec/CPU/557.xz_r/run/run_base_refrate_gem5_se-m64.0000/
Process stdout file: /home/user/PrIDE/performance/gem5/stats/pride_multiprogram_16GBmem_250Mn.SPEC2017.C4/AE.BASELINE.4C/mix15/mix15.out_1
Process stderr file: /home/user/PrIDE/performance/gem5/stats/pride_multiprogram_16GBmem_250Mn.SPEC2017.C4/AE.BASELINE.4C/mix15/mix15.err_1
Benchmark- 2   roms
Selected benchmark
--> roms
CMD: ['/opt/spec2017/benchspec/CPU/554.roms_r/run/run_base_refrate_gem5_se-m64.0000/roms_r_base.gem5_se-m64']
CWD: /opt/spec2017/benchspec/CPU/554.roms_r/run/run_base_refrate_gem5_se-m64.0000/
Process stdout file: /home/user/PrIDE/performance/gem5/stats/pride_multiprogram_16GBmem_250Mn.SPEC2017.C4/AE.BASELINE.4C/mix15/mix15.out_2
Process stderr file: /home/user/PrIDE/performance/gem5/stats/pride_multiprogram_16GBmem_250Mn.SPEC2017.C4/AE.BASELINE.4C/mix15/mix15.err_2
Benchmark- 3   namd
Selected benchmark
--> namd
CMD: ['/opt/spec2017/benchspec/CPU/508.namd_r/run/run_base_refrate_gem5_se-m64.0000/namd_r_base.gem5_se-m64', '--input', '/opt/spec2017/benchspec/CPU/508.namd_r/run/run_base_refrate_gem5_se-m64.0000/apoa1.input', '--output', '/opt/spec2017/benchspec/CPU/508.namd_r/run/run_base_refrate_gem5_se-m64.0000/apoa1.ref.output', '--iterations', '65']
CWD: /opt/spec2017/benchspec/CPU/508.namd_r/run/run_base_refrate_gem5_se-m64.0000/
Process stdout file: /home/user/PrIDE/performance/gem5/stats/pride_multiprogram_16GBmem_250Mn.SPEC2017.C4/AE.BASELINE.4C/mix15/mix15.out_3
Process stderr file: /home/user/PrIDE/performance/gem5/stats/pride_multiprogram_16GBmem_250Mn.SPEC2017.C4/AE.BASELINE.4C/mix15/mix15.err_3
Workload-0: 
['/opt/spec2017/benchspec/CPU/507.cactuBSSN_r/run/run_base_refrate_gem5_se-m64.0000/cactusBSSN_r_base.gem5_se-m64', '/opt/spec2017/benchspec/CPU/507.cactuBSSN_r/run/run_base_refrate_gem5_se-m64.0000/spec_ref.par']
Workload-1: 
['/opt/spec2017/benchspec/CPU/557.xz_r/run/run_base_refrate_gem5_se-m64.0000/xz_r_base.gem5_se-m64', '/opt/spec2017/benchspec/CPU/557.xz_r/run/run_base_refrate_gem5_se-m64.0000/cld.tar.xz', '160', '19cf30ae51eddcbefda78dd06014b4b96281456e078ca7c13e1c0c9e6aaea8dff3efb4ad6b0456697718cede6bd5454852652806a657bb56e07d61128434b474', '59796407', '61004416', '6']
Workload-2: 
['/opt/spec2017/benchspec/CPU/554.roms_r/run/run_base_refrate_gem5_se-m64.0000/roms_r_base.gem5_se-m64']
Workload-3: 
['/opt/spec2017/benchspec/CPU/508.namd_r/run/run_base_refrate_gem5_se-m64.0000/namd_r_base.gem5_se-m64', '--input', '/opt/spec2017/benchspec/CPU/508.namd_r/run/run_base_refrate_gem5_se-m64.0000/apoa1.input', '--output', '/opt/spec2017/benchspec/CPU/508.namd_r/run/run_base_refrate_gem5_se-m64.0000/apoa1.ref.output', '--iterations', '65']
defense_enable:  False  detector:  MG  mitigation:  RRS  threshold:  800
mg_entries:  1700
rrs_tuples:  3400 rrs_swap_delay:  2740ns rit_acc_delay:  1.25ns
Switch at curTick count:10000
warn: membus.master is deprecated. `master` is now called `mem_side_ports`
warn: No dot file generated. Please install pydot to generate the dot file and pdf.
info: Entering event queue @ 13945158483732.  Starting simulation...
info: Entering event queue @ 13945158493732.  Starting simulation...
warn: PowerState: Already in the requested power state, request ignored
Switched CPUS @ tick 13945158493732
switching cpus
**** REAL SIMULATION ****
info: Entering event queue @ 13945158494055.  Starting simulation...
warn: MOVNTDQ: Ignoring non-temporal hint, modeling as cacheable!
13948491817065: Event_285: system.switch_cpus3 progress event, total committed:33234673, progress insts committed: 33234673, IPC: 03.32014
13948491817065: Event_284: system.switch_cpus2 progress event, total committed:14963283, progress insts committed: 14963283, IPC: 01.49483
13948491817065: Event_283: system.switch_cpus1 progress event, total committed:16090700, progress insts committed: 16090700, IPC: 01.60746
13948491817065: Event_282: system.switch_cpus0 progress event, total committed:7209048, progress insts committed: 7209048, IPC: 0.720184
13951825150398: Event_282: system.switch_cpus0 progress event, total committed:14452661, progress insts committed: 7243613, IPC: 0.723637
13951825150398: Event_283: system.switch_cpus1 progress event, total committed:32429778, progress insts committed: 16339078, IPC: 01.63227
13951825150398: Event_284: system.switch_cpus2 progress event, total committed:30658626, progress insts committed: 15695343, IPC: 01.56796
13951825150398: Event_285: system.switch_cpus3 progress event, total committed:66092308, progress insts committed: 32857635, IPC: 03.28248
13955158483731: Event_285: system.switch_cpus3 progress event, total committed:98299359, progress insts committed: 32207051, IPC: 03.21748
13955158483731: Event_284: system.switch_cpus2 progress event, total committed:41837041, progress insts committed: 11178415, IPC: 01.11672
13955158483731: Event_283: system.switch_cpus1 progress event, total committed:48493884, progress insts committed: 16064106, IPC: 001.6048
13955158483731: Event_282: system.switch_cpus0 progress event, total committed:21663664, progress insts committed: 7211003, IPC: 0.720379
13958491817064: Event_282: system.switch_cpus0 progress event, total committed:28888269, progress insts committed: 7224605, IPC: 0.721738
13958491817064: Event_283: system.switch_cpus1 progress event, total committed:64468904, progress insts committed: 15975020, IPC: 001.5959
13958491817064: Event_284: system.switch_cpus2 progress event, total committed:49967152, progress insts committed: 8130111, IPC: 0.812198
13958491817064: Event_285: system.switch_cpus3 progress event, total committed:130514159, progress insts committed: 32214800, IPC: 03.21826
13961825150397: Event_285: system.switch_cpus3 progress event, total committed:164049287, progress insts committed: 33535128, IPC: 03.35016
13961825150397: Event_284: system.switch_cpus2 progress event, total committed:58638486, progress insts committed: 8671334, IPC: 0.866266
13961825150397: Event_283: system.switch_cpus1 progress event, total committed:80662645, progress insts committed: 16193741, IPC: 01.61775
13961825150397: Event_282: system.switch_cpus0 progress event, total committed:36220951, progress insts committed: 7332682, IPC: 0.732535
13965158483730: Event_282: system.switch_cpus0 progress event, total committed:43585822, progress insts committed: 7364871, IPC: 0.735751
13965158483730: Event_283: system.switch_cpus1 progress event, total committed:97103374, progress insts committed: 16440729, IPC: 01.64243
13965158483730: Event_284: system.switch_cpus2 progress event, total committed:66280074, progress insts committed: 7641588, IPC: 0.763395
13965158483730: Event_285: system.switch_cpus3 progress event, total committed:197046085, progress insts committed: 32996798, IPC: 03.29638
13968491817063: Event_285: system.switch_cpus3 progress event, total committed:229144620, progress insts committed: 32098535, IPC: 03.20664
13968491817063: Event_284: system.switch_cpus2 progress event, total committed:71218328, progress insts committed: 4938254, IPC: 0.493332
13968491817063: Event_283: system.switch_cpus1 progress event, total committed:112891955, progress insts committed: 15788581, IPC: 01.57728
13968491817063: Event_282: system.switch_cpus0 progress event, total committed:50772452, progress insts committed: 7186630, IPC: 0.717944
13971825150396: Event_282: system.switch_cpus0 progress event, total committed:57840234, progress insts committed: 7067782, IPC: 0.706071
13971825150396: Event_283: system.switch_cpus1 progress event, total committed:128795577, progress insts committed: 15903622, IPC: 01.58877
13971825150396: Event_284: system.switch_cpus2 progress event, total committed:75961676, progress insts committed: 4743348, IPC: 00.47386
13971825150396: Event_285: system.switch_cpus3 progress event, total committed:260157617, progress insts committed: 31012997, IPC: 003.0982
13975158483729: Event_285: system.switch_cpus3 progress event, total committed:292092497, progress insts committed: 31934880, IPC: 03.19029
13975158483729: Event_284: system.switch_cpus2 progress event, total committed:81920734, progress insts committed: 5959058, IPC: 00.59531
13975158483729: Event_283: system.switch_cpus1 progress event, total committed:144576658, progress insts committed: 15781081, IPC: 01.57653
13975158483729: Event_282: system.switch_cpus0 progress event, total committed:65019667, progress insts committed: 7179433, IPC: 0.717225
Exiting @ tick 13975637408298 because a thread reached the max instruction count
