
---------- Begin Simulation Statistics ----------
final_tick                               13975657988364                       # Number of ticks from beginning of simulation (restored from checkpoints and never reset)
host_inst_rate                                 154960                       # Simulator instruction rate (inst/s)
host_mem_usage                               17432568                       # Number of bytes of host memory used
host_op_rate                                   198517                       # Simulator op (including micro ops) rate (op/s)
host_seconds                                  2995.20                       # Real time elapsed on the host
host_tick_rate                               10182781                       # Simulator tick rate (ticks/s)
sim_freq                                 1000000000000                       # Frequency of simulated ticks
sim_insts                                   464135913                       # Number of instructions simulated
sim_ops                                     594600043                       # Number of ops (including micro ops) simulated
sim_seconds                                  0.030500                       # Number of seconds simulated
sim_ticks                                 30499504632                       # Number of ticks simulated
system.cpu0.Branches                                1                       # Number of branches fetched
system.cpu0.committedInsts                         15                       # Number of instructions committed
system.cpu0.committedOps                           19                       # Number of ops (including micro ops) committed
system.cpu0.idle_fraction                           0                       # Percentage of idle cycles
system.cpu0.l2bus.snoop_filter.hit_multi_requests            3                       # Number of requests hitting in the snoop filter with multiple (>1) holders of the requested data.
system.cpu0.l2bus.snoop_filter.hit_multi_snoops            0                       # Number of snoops hitting in the snoop filter with multiple (>1) holders of the requested data.
system.cpu0.l2bus.snoop_filter.hit_single_requests      8206587                       # Number of requests hitting in the snoop filter with a single holder of the requested data.
system.cpu0.l2bus.snoop_filter.hit_single_snoops        16716                       # Number of snoops hitting in the snoop filter with a single holder of the requested data.
system.cpu0.l2bus.snoop_filter.tot_requests     16414180                       # Total number of requests made to the snoop filter.
system.cpu0.l2bus.snoop_filter.tot_snoops        16716                       # Total number of snoops made to the snoop filter.
system.cpu0.mmucache.mmubus.snoop_filter.hit_multi_requests            0                       # Number of requests hitting in the snoop filter with multiple (>1) holders of the requested data.
system.cpu0.mmucache.mmubus.snoop_filter.hit_multi_snoops            0                       # Number of snoops hitting in the snoop filter with multiple (>1) holders of the requested data.
system.cpu0.mmucache.mmubus.snoop_filter.hit_single_requests            0                       # Number of requests hitting in the snoop filter with a single holder of the requested data.
system.cpu0.mmucache.mmubus.snoop_filter.hit_single_snoops            0                       # Number of snoops hitting in the snoop filter with a single holder of the requested data.
system.cpu0.mmucache.mmubus.snoop_filter.tot_requests            0                       # Total number of requests made to the snoop filter.
system.cpu0.mmucache.mmubus.snoop_filter.tot_snoops            0                       # Total number of snoops made to the snoop filter.
system.cpu0.not_idle_fraction                       1                       # Percentage of non-idle cycles
system.cpu0.numCycles                              30                       # number of cpu cycles simulated
system.cpu0.numWorkItemsCompleted                   0                       # number of work items this cpu completed
system.cpu0.numWorkItemsStarted                     0                       # number of work items this cpu started
system.cpu0.num_busy_cycles                        30                       # Number of busy cycles
system.cpu0.num_cc_register_reads                   5                       # number of times the CC registers were read
system.cpu0.num_conditional_control_insts            1                       # number of instructions that are conditional controls
system.cpu0.num_fp_alu_accesses                    10                       # Number of float alu accesses
system.cpu0.num_fp_insts                           10                       # number of float instructions
system.cpu0.num_fp_register_reads                  10                       # number of times the floating registers were read
system.cpu0.num_fp_register_writes                  3                       # number of times the floating registers were written
system.cpu0.num_func_calls                          0                       # number of times a function call or return occured
system.cpu0.num_idle_cycles                         0                       # Number of idle cycles
system.cpu0.num_int_alu_accesses                   18                       # Number of integer alu accesses
system.cpu0.num_int_insts                          18                       # number of integer instructions
system.cpu0.num_int_register_reads                 52                       # number of times the integer registers were read
system.cpu0.num_int_register_writes                 3                       # number of times the integer registers were written
system.cpu0.num_load_insts                          2                       # Number of load instructions
system.cpu0.num_mem_refs                           14                       # number of memory refs
system.cpu0.num_store_insts                        12                       # Number of store instructions
system.cpu0.num_vec_alu_accesses                    0                       # Number of vector alu accesses
system.cpu0.num_vec_insts                           0                       # number of vector instructions
system.cpu0.num_vec_register_reads                  0                       # number of times the vector registers were read
system.cpu0.num_vec_register_writes                 0                       # number of times the vector registers were written
system.cpu0.op_class::No_OpClass                    0      0.00%      0.00% # Class of executed instruction
system.cpu0.op_class::IntAlu                        4     21.05%     21.05% # Class of executed instruction
system.cpu0.op_class::IntMult                       0      0.00%     21.05% # Class of executed instruction
system.cpu0.op_class::IntDiv                        0      0.00%     21.05% # Class of executed instruction
system.cpu0.op_class::FloatAdd                      0      0.00%     21.05% # Class of executed instruction
system.cpu0.op_class::FloatCmp                      0      0.00%     21.05% # Class of executed instruction
system.cpu0.op_class::FloatCvt                      0      0.00%     21.05% # Class of executed instruction
system.cpu0.op_class::FloatMult                     0      0.00%     21.05% # Class of executed instruction
system.cpu0.op_class::FloatMultAcc                  0      0.00%     21.05% # Class of executed instruction
system.cpu0.op_class::FloatDiv                      0      0.00%     21.05% # Class of executed instruction
system.cpu0.op_class::FloatMisc                     0      0.00%     21.05% # Class of executed instruction
system.cpu0.op_class::FloatSqrt                     0      0.00%     21.05% # Class of executed instruction
system.cpu0.op_class::SimdAdd                       0      0.00%     21.05% # Class of executed instruction
system.cpu0.op_class::SimdAddAcc                    0      0.00%     21.05% # Class of executed instruction
system.cpu0.op_class::SimdAlu                       0      0.00%     21.05% # Class of executed instruction
system.cpu0.op_class::SimdCmp                       0      0.00%     21.05% # Class of executed instruction
system.cpu0.op_class::SimdCvt                       0      0.00%     21.05% # Class of executed instruction
system.cpu0.op_class::SimdMisc                      0      0.00%     21.05% # Class of executed instruction
system.cpu0.op_class::SimdMult                      0      0.00%     21.05% # Class of executed instruction
system.cpu0.op_class::SimdMultAcc                   0      0.00%     21.05% # Class of executed instruction
system.cpu0.op_class::SimdShift                     0      0.00%     21.05% # Class of executed instruction
system.cpu0.op_class::SimdShiftAcc                  0      0.00%     21.05% # Class of executed instruction
system.cpu0.op_class::SimdDiv                       0      0.00%     21.05% # Class of executed instruction
system.cpu0.op_class::SimdSqrt                      0      0.00%     21.05% # Class of executed instruction
system.cpu0.op_class::SimdFloatAdd                  0      0.00%     21.05% # Class of executed instruction
system.cpu0.op_class::SimdFloatAlu                  0      0.00%     21.05% # Class of executed instruction
system.cpu0.op_class::SimdFloatCmp                  0      0.00%     21.05% # Class of executed instruction
system.cpu0.op_class::SimdFloatCvt                  0      0.00%     21.05% # Class of executed instruction
system.cpu0.op_class::SimdFloatDiv                  0      0.00%     21.05% # Class of executed instruction
system.cpu0.op_class::SimdFloatMisc                 0      0.00%     21.05% # Class of executed instruction
system.cpu0.op_class::SimdFloatMult                 1      5.26%     26.32% # Class of executed instruction
system.cpu0.op_class::SimdFloatMultAcc              0      0.00%     26.32% # Class of executed instruction
system.cpu0.op_class::SimdFloatSqrt                 0      0.00%     26.32% # Class of executed instruction
system.cpu0.op_class::SimdReduceAdd                 0      0.00%     26.32% # Class of executed instruction
system.cpu0.op_class::SimdReduceAlu                 0      0.00%     26.32% # Class of executed instruction
system.cpu0.op_class::SimdReduceCmp                 0      0.00%     26.32% # Class of executed instruction
system.cpu0.op_class::SimdFloatReduceAdd            0      0.00%     26.32% # Class of executed instruction
system.cpu0.op_class::SimdFloatReduceCmp            0      0.00%     26.32% # Class of executed instruction
system.cpu0.op_class::SimdAes                       0      0.00%     26.32% # Class of executed instruction
system.cpu0.op_class::SimdAesMix                    0      0.00%     26.32% # Class of executed instruction
system.cpu0.op_class::SimdSha1Hash                  0      0.00%     26.32% # Class of executed instruction
system.cpu0.op_class::SimdSha1Hash2                 0      0.00%     26.32% # Class of executed instruction
system.cpu0.op_class::SimdSha256Hash                0      0.00%     26.32% # Class of executed instruction
system.cpu0.op_class::SimdSha256Hash2               0      0.00%     26.32% # Class of executed instruction
system.cpu0.op_class::SimdShaSigma2                 0      0.00%     26.32% # Class of executed instruction
system.cpu0.op_class::SimdShaSigma3                 0      0.00%     26.32% # Class of executed instruction
system.cpu0.op_class::SimdPredAlu                   0      0.00%     26.32% # Class of executed instruction
system.cpu0.op_class::MemRead                       0      0.00%     26.32% # Class of executed instruction
system.cpu0.op_class::MemWrite                      5     26.32%     52.63% # Class of executed instruction
system.cpu0.op_class::FloatMemRead                  2     10.53%     63.16% # Class of executed instruction
system.cpu0.op_class::FloatMemWrite                 7     36.84%    100.00% # Class of executed instruction
system.cpu0.op_class::IprAccess                     0      0.00%    100.00% # Class of executed instruction
system.cpu0.op_class::InstPrefetch                  0      0.00%    100.00% # Class of executed instruction
system.cpu0.op_class::total                        19                       # Class of executed instruction
system.cpu0.workload.numSyscalls                    0                       # Number of system calls
system.cpu1.Branches                                1                       # Number of branches fetched
system.cpu1.committedInsts                         16                       # Number of instructions committed
system.cpu1.committedOps                           23                       # Number of ops (including micro ops) committed
system.cpu1.idle_fraction                           0                       # Percentage of idle cycles
system.cpu1.l2bus.snoop_filter.hit_multi_requests           63                       # Number of requests hitting in the snoop filter with multiple (>1) holders of the requested data.
system.cpu1.l2bus.snoop_filter.hit_multi_snoops            0                       # Number of snoops hitting in the snoop filter with multiple (>1) holders of the requested data.
system.cpu1.l2bus.snoop_filter.hit_single_requests        93193                       # Number of requests hitting in the snoop filter with a single holder of the requested data.
system.cpu1.l2bus.snoop_filter.hit_single_snoops          347                       # Number of snoops hitting in the snoop filter with a single holder of the requested data.
system.cpu1.l2bus.snoop_filter.tot_requests       187164                       # Total number of requests made to the snoop filter.
system.cpu1.l2bus.snoop_filter.tot_snoops          347                       # Total number of snoops made to the snoop filter.
system.cpu1.mmucache.mmubus.snoop_filter.hit_multi_requests            0                       # Number of requests hitting in the snoop filter with multiple (>1) holders of the requested data.
system.cpu1.mmucache.mmubus.snoop_filter.hit_multi_snoops            0                       # Number of snoops hitting in the snoop filter with multiple (>1) holders of the requested data.
system.cpu1.mmucache.mmubus.snoop_filter.hit_single_requests            0                       # Number of requests hitting in the snoop filter with a single holder of the requested data.
system.cpu1.mmucache.mmubus.snoop_filter.hit_single_snoops            0                       # Number of snoops hitting in the snoop filter with a single holder of the requested data.
system.cpu1.mmucache.mmubus.snoop_filter.tot_requests            0                       # Total number of requests made to the snoop filter.
system.cpu1.mmucache.mmubus.snoop_filter.tot_snoops            0                       # Total number of snoops made to the snoop filter.
system.cpu1.not_idle_fraction                       1                       # Percentage of non-idle cycles
system.cpu1.numCycles                              31                       # number of cpu cycles simulated
system.cpu1.numWorkItemsCompleted                   0                       # number of work items this cpu completed
system.cpu1.numWorkItemsStarted                     0                       # number of work items this cpu started
system.cpu1.num_busy_cycles                        31                       # Number of busy cycles
system.cpu1.num_cc_register_reads                  17                       # number of times the CC registers were read
system.cpu1.num_cc_register_writes                 12                       # number of times the CC registers were written
system.cpu1.num_conditional_control_insts            1                       # number of instructions that are conditional controls
system.cpu1.num_fp_alu_accesses                     0                       # Number of float alu accesses
system.cpu1.num_fp_insts                            0                       # number of float instructions
system.cpu1.num_fp_register_reads                   0                       # number of times the floating registers were read
system.cpu1.num_fp_register_writes                  0                       # number of times the floating registers were written
system.cpu1.num_func_calls                          0                       # number of times a function call or return occured
system.cpu1.num_idle_cycles                         0                       # Number of idle cycles
system.cpu1.num_int_alu_accesses                   23                       # Number of integer alu accesses
system.cpu1.num_int_insts                          23                       # number of integer instructions
system.cpu1.num_int_register_reads                 48                       # number of times the integer registers were read
system.cpu1.num_int_register_writes                21                       # number of times the integer registers were written
system.cpu1.num_load_insts                          3                       # Number of load instructions
system.cpu1.num_mem_refs                            4                       # number of memory refs
system.cpu1.num_store_insts                         1                       # Number of store instructions
system.cpu1.num_vec_alu_accesses                    0                       # Number of vector alu accesses
system.cpu1.num_vec_insts                           0                       # number of vector instructions
system.cpu1.num_vec_register_reads                  0                       # number of times the vector registers were read
system.cpu1.num_vec_register_writes                 0                       # number of times the vector registers were written
system.cpu1.op_class::No_OpClass                    0      0.00%      0.00% # Class of executed instruction
system.cpu1.op_class::IntAlu                       19     82.61%     82.61% # Class of executed instruction
system.cpu1.op_class::IntMult                       0      0.00%     82.61% # Class of executed instruction
system.cpu1.op_class::IntDiv                        0      0.00%     82.61% # Class of executed instruction
system.cpu1.op_class::FloatAdd                      0      0.00%     82.61% # Class of executed instruction
system.cpu1.op_class::FloatCmp                      0      0.00%     82.61% # Class of executed instruction
system.cpu1.op_class::FloatCvt                      0      0.00%     82.61% # Class of executed instruction
system.cpu1.op_class::FloatMult                     0      0.00%     82.61% # Class of executed instruction
system.cpu1.op_class::FloatMultAcc                  0      0.00%     82.61% # Class of executed instruction
system.cpu1.op_class::FloatDiv                      0      0.00%     82.61% # Class of executed instruction
system.cpu1.op_class::FloatMisc                     0      0.00%     82.61% # Class of executed instruction
system.cpu1.op_class::FloatSqrt                     0      0.00%     82.61% # Class of executed instruction
system.cpu1.op_class::SimdAdd                       0      0.00%     82.61% # Class of executed instruction
system.cpu1.op_class::SimdAddAcc                    0      0.00%     82.61% # Class of executed instruction
system.cpu1.op_class::SimdAlu                       0      0.00%     82.61% # Class of executed instruction
system.cpu1.op_class::SimdCmp                       0      0.00%     82.61% # Class of executed instruction
system.cpu1.op_class::SimdCvt                       0      0.00%     82.61% # Class of executed instruction
system.cpu1.op_class::SimdMisc                      0      0.00%     82.61% # Class of executed instruction
system.cpu1.op_class::SimdMult                      0      0.00%     82.61% # Class of executed instruction
system.cpu1.op_class::SimdMultAcc                   0      0.00%     82.61% # Class of executed instruction
system.cpu1.op_class::SimdShift                     0      0.00%     82.61% # Class of executed instruction
system.cpu1.op_class::SimdShiftAcc                  0      0.00%     82.61% # Class of executed instruction
system.cpu1.op_class::SimdDiv                       0      0.00%     82.61% # Class of executed instruction
system.cpu1.op_class::SimdSqrt                      0      0.00%     82.61% # Class of executed instruction
system.cpu1.op_class::SimdFloatAdd                  0      0.00%     82.61% # Class of executed instruction
system.cpu1.op_class::SimdFloatAlu                  0      0.00%     82.61% # Class of executed instruction
system.cpu1.op_class::SimdFloatCmp                  0      0.00%     82.61% # Class of executed instruction
system.cpu1.op_class::SimdFloatCvt                  0      0.00%     82.61% # Class of executed instruction
system.cpu1.op_class::SimdFloatDiv                  0      0.00%     82.61% # Class of executed instruction
system.cpu1.op_class::SimdFloatMisc                 0      0.00%     82.61% # Class of executed instruction
system.cpu1.op_class::SimdFloatMult                 0      0.00%     82.61% # Class of executed instruction
system.cpu1.op_class::SimdFloatMultAcc              0      0.00%     82.61% # Class of executed instruction
system.cpu1.op_class::SimdFloatSqrt                 0      0.00%     82.61% # Class of executed instruction
system.cpu1.op_class::SimdReduceAdd                 0      0.00%     82.61% # Class of executed instruction
system.cpu1.op_class::SimdReduceAlu                 0      0.00%     82.61% # Class of executed instruction
system.cpu1.op_class::SimdReduceCmp                 0      0.00%     82.61% # Class of executed instruction
system.cpu1.op_class::SimdFloatReduceAdd            0      0.00%     82.61% # Class of executed instruction
system.cpu1.op_class::SimdFloatReduceCmp            0      0.00%     82.61% # Class of executed instruction
system.cpu1.op_class::SimdAes                       0      0.00%     82.61% # Class of executed instruction
system.cpu1.op_class::SimdAesMix                    0      0.00%     82.61% # Class of executed instruction
system.cpu1.op_class::SimdSha1Hash                  0      0.00%     82.61% # Class of executed instruction
system.cpu1.op_class::SimdSha1Hash2                 0      0.00%     82.61% # Class of executed instruction
system.cpu1.op_class::SimdSha256Hash                0      0.00%     82.61% # Class of executed instruction
system.cpu1.op_class::SimdSha256Hash2               0      0.00%     82.61% # Class of executed instruction
system.cpu1.op_class::SimdShaSigma2                 0      0.00%     82.61% # Class of executed instruction
system.cpu1.op_class::SimdShaSigma3                 0      0.00%     82.61% # Class of executed instruction
system.cpu1.op_class::SimdPredAlu                   0      0.00%     82.61% # Class of executed instruction
system.cpu1.op_class::MemRead                       3     13.04%     95.65% # Class of executed instruction
system.cpu1.op_class::MemWrite                      1      4.35%    100.00% # Class of executed instruction
system.cpu1.op_class::FloatMemRead                  0      0.00%    100.00% # Class of executed instruction
system.cpu1.op_class::FloatMemWrite                 0      0.00%    100.00% # Class of executed instruction
system.cpu1.op_class::IprAccess                     0      0.00%    100.00% # Class of executed instruction
system.cpu1.op_class::InstPrefetch                  0      0.00%    100.00% # Class of executed instruction
system.cpu1.op_class::total                        23                       # Class of executed instruction
system.cpu1.workload.numSyscalls                    0                       # Number of system calls
system.cpu2.committedInsts                         12                       # Number of instructions committed
system.cpu2.committedOps                           22                       # Number of ops (including micro ops) committed
system.cpu2.idle_fraction                           0                       # Percentage of idle cycles
system.cpu2.l2bus.snoop_filter.hit_multi_requests            5                       # Number of requests hitting in the snoop filter with multiple (>1) holders of the requested data.
system.cpu2.l2bus.snoop_filter.hit_multi_snoops            0                       # Number of snoops hitting in the snoop filter with multiple (>1) holders of the requested data.
system.cpu2.l2bus.snoop_filter.hit_single_requests      1089746                       # Number of requests hitting in the snoop filter with a single holder of the requested data.
system.cpu2.l2bus.snoop_filter.hit_single_snoops         2920                       # Number of snoops hitting in the snoop filter with a single holder of the requested data.
system.cpu2.l2bus.snoop_filter.tot_requests      2180189                       # Total number of requests made to the snoop filter.
system.cpu2.l2bus.snoop_filter.tot_snoops         2920                       # Total number of snoops made to the snoop filter.
system.cpu2.mmucache.mmubus.snoop_filter.hit_multi_requests            0                       # Number of requests hitting in the snoop filter with multiple (>1) holders of the requested data.
system.cpu2.mmucache.mmubus.snoop_filter.hit_multi_snoops            0                       # Number of snoops hitting in the snoop filter with multiple (>1) holders of the requested data.
system.cpu2.mmucache.mmubus.snoop_filter.hit_single_requests            0                       # Number of requests hitting in the snoop filter with a single holder of the requested data.
system.cpu2.mmucache.mmubus.snoop_filter.hit_single_snoops            0                       # Number of snoops hitting in the snoop filter with a single holder of the requested data.
system.cpu2.mmucache.mmubus.snoop_filter.tot_requests            0                       # Total number of requests made to the snoop filter.
system.cpu2.mmucache.mmubus.snoop_filter.tot_snoops            0                       # Total number of snoops made to the snoop filter.
system.cpu2.not_idle_fraction                       1                       # Percentage of non-idle cycles
system.cpu2.numCycles                              30                       # number of cpu cycles simulated
system.cpu2.numWorkItemsCompleted                   0                       # number of work items this cpu completed
system.cpu2.numWorkItemsStarted                     0                       # number of work items this cpu started
system.cpu2.num_busy_cycles                        30                       # Number of busy cycles
system.cpu2.num_conditional_control_insts            0                       # number of instructions that are conditional controls
system.cpu2.num_fp_alu_accesses                    17                       # Number of float alu accesses
system.cpu2.num_fp_insts                           17                       # number of float instructions
system.cpu2.num_fp_register_reads                  36                       # number of times the floating registers were read
system.cpu2.num_fp_register_writes                 17                       # number of times the floating registers were written
system.cpu2.num_func_calls                          0                       # number of times a function call or return occured
system.cpu2.num_idle_cycles                         0                       # Number of idle cycles
system.cpu2.num_int_alu_accesses                   10                       # Number of integer alu accesses
system.cpu2.num_int_insts                          10                       # number of integer instructions
system.cpu2.num_int_register_reads                 20                       # number of times the integer registers were read
system.cpu2.num_int_register_writes                 5                       # number of times the integer registers were written
system.cpu2.num_load_insts                          5                       # Number of load instructions
system.cpu2.num_mem_refs                            5                       # number of memory refs
system.cpu2.num_store_insts                         0                       # Number of store instructions
system.cpu2.num_vec_alu_accesses                    0                       # Number of vector alu accesses
system.cpu2.num_vec_insts                           0                       # number of vector instructions
system.cpu2.num_vec_register_reads                  0                       # number of times the vector registers were read
system.cpu2.num_vec_register_writes                 0                       # number of times the vector registers were written
system.cpu2.op_class::No_OpClass                    0      0.00%      0.00% # Class of executed instruction
system.cpu2.op_class::IntAlu                        5     22.73%     22.73% # Class of executed instruction
system.cpu2.op_class::IntMult                       0      0.00%     22.73% # Class of executed instruction
system.cpu2.op_class::IntDiv                        0      0.00%     22.73% # Class of executed instruction
system.cpu2.op_class::FloatAdd                      0      0.00%     22.73% # Class of executed instruction
system.cpu2.op_class::FloatCmp                      0      0.00%     22.73% # Class of executed instruction
system.cpu2.op_class::FloatCvt                      0      0.00%     22.73% # Class of executed instruction
system.cpu2.op_class::FloatMult                     0      0.00%     22.73% # Class of executed instruction
system.cpu2.op_class::FloatMultAcc                  0      0.00%     22.73% # Class of executed instruction
system.cpu2.op_class::FloatDiv                      0      0.00%     22.73% # Class of executed instruction
system.cpu2.op_class::FloatMisc                     0      0.00%     22.73% # Class of executed instruction
system.cpu2.op_class::FloatSqrt                     0      0.00%     22.73% # Class of executed instruction
system.cpu2.op_class::SimdAdd                       0      0.00%     22.73% # Class of executed instruction
system.cpu2.op_class::SimdAddAcc                    0      0.00%     22.73% # Class of executed instruction
system.cpu2.op_class::SimdAlu                       0      0.00%     22.73% # Class of executed instruction
system.cpu2.op_class::SimdCmp                       0      0.00%     22.73% # Class of executed instruction
system.cpu2.op_class::SimdCvt                       0      0.00%     22.73% # Class of executed instruction
system.cpu2.op_class::SimdMisc                      0      0.00%     22.73% # Class of executed instruction
system.cpu2.op_class::SimdMult                      0      0.00%     22.73% # Class of executed instruction
system.cpu2.op_class::SimdMultAcc                   0      0.00%     22.73% # Class of executed instruction
system.cpu2.op_class::SimdShift                     0      0.00%     22.73% # Class of executed instruction
system.cpu2.op_class::SimdShiftAcc                  0      0.00%     22.73% # Class of executed instruction
system.cpu2.op_class::SimdDiv                       0      0.00%     22.73% # Class of executed instruction
system.cpu2.op_class::SimdSqrt                      0      0.00%     22.73% # Class of executed instruction
system.cpu2.op_class::SimdFloatAdd                  5     22.73%     45.45% # Class of executed instruction
system.cpu2.op_class::SimdFloatAlu                  0      0.00%     45.45% # Class of executed instruction
system.cpu2.op_class::SimdFloatCmp                  0      0.00%     45.45% # Class of executed instruction
system.cpu2.op_class::SimdFloatCvt                  0      0.00%     45.45% # Class of executed instruction
system.cpu2.op_class::SimdFloatDiv                  0      0.00%     45.45% # Class of executed instruction
system.cpu2.op_class::SimdFloatMisc                 0      0.00%     45.45% # Class of executed instruction
system.cpu2.op_class::SimdFloatMult                 7     31.82%     77.27% # Class of executed instruction
system.cpu2.op_class::SimdFloatMultAcc              0      0.00%     77.27% # Class of executed instruction
system.cpu2.op_class::SimdFloatSqrt                 0      0.00%     77.27% # Class of executed instruction
system.cpu2.op_class::SimdReduceAdd                 0      0.00%     77.27% # Class of executed instruction
system.cpu2.op_class::SimdReduceAlu                 0      0.00%     77.27% # Class of executed instruction
system.cpu2.op_class::SimdReduceCmp                 0      0.00%     77.27% # Class of executed instruction
system.cpu2.op_class::SimdFloatReduceAdd            0      0.00%     77.27% # Class of executed instruction
system.cpu2.op_class::SimdFloatReduceCmp            0      0.00%     77.27% # Class of executed instruction
system.cpu2.op_class::SimdAes                       0      0.00%     77.27% # Class of executed instruction
system.cpu2.op_class::SimdAesMix                    0      0.00%     77.27% # Class of executed instruction
system.cpu2.op_class::SimdSha1Hash                  0      0.00%     77.27% # Class of executed instruction
system.cpu2.op_class::SimdSha1Hash2                 0      0.00%     77.27% # Class of executed instruction
system.cpu2.op_class::SimdSha256Hash                0      0.00%     77.27% # Class of executed instruction
system.cpu2.op_class::SimdSha256Hash2               0      0.00%     77.27% # Class of executed instruction
system.cpu2.op_class::SimdShaSigma2                 0      0.00%     77.27% # Class of executed instruction
system.cpu2.op_class::SimdShaSigma3                 0      0.00%     77.27% # Class of executed instruction
system.cpu2.op_class::SimdPredAlu                   0      0.00%     77.27% # Class of executed instruction
system.cpu2.op_class::MemRead                       0      0.00%     77.27% # Class of executed instruction
system.cpu2.op_class::MemWrite                      0      0.00%     77.27% # Class of executed instruction
system.cpu2.op_class::FloatMemRead                  5     22.73%    100.00% # Class of executed instruction
system.cpu2.op_class::FloatMemWrite                 0      0.00%    100.00% # Class of executed instruction
system.cpu2.op_class::IprAccess                     0      0.00%    100.00% # Class of executed instruction
system.cpu2.op_class::InstPrefetch                  0      0.00%    100.00% # Class of executed instruction
system.cpu2.op_class::total                        22                       # Class of executed instruction
system.cpu2.workload.numSyscalls                    0                       # Number of system calls
system.cpu3.Branches                                1                       # Number of branches fetched
system.cpu3.committedInsts                         16                       # Number of instructions committed
system.cpu3.committedOps                           21                       # Number of ops (including micro ops) committed
system.cpu3.idle_fraction                           0                       # Percentage of idle cycles
system.cpu3.l2bus.snoop_filter.hit_multi_requests          116                       # Number of requests hitting in the snoop filter with multiple (>1) holders of the requested data.
system.cpu3.l2bus.snoop_filter.hit_multi_snoops            0                       # Number of snoops hitting in the snoop filter with multiple (>1) holders of the requested data.
system.cpu3.l2bus.snoop_filter.hit_single_requests      1272235                       # Number of requests hitting in the snoop filter with a single holder of the requested data.
system.cpu3.l2bus.snoop_filter.hit_single_snoops          507                       # Number of snoops hitting in the snoop filter with a single holder of the requested data.
system.cpu3.l2bus.snoop_filter.tot_requests      2541010                       # Total number of requests made to the snoop filter.
system.cpu3.l2bus.snoop_filter.tot_snoops          507                       # Total number of snoops made to the snoop filter.
system.cpu3.mmucache.mmubus.snoop_filter.hit_multi_requests            0                       # Number of requests hitting in the snoop filter with multiple (>1) holders of the requested data.
system.cpu3.mmucache.mmubus.snoop_filter.hit_multi_snoops            0                       # Number of snoops hitting in the snoop filter with multiple (>1) holders of the requested data.
system.cpu3.mmucache.mmubus.snoop_filter.hit_single_requests            0                       # Number of requests hitting in the snoop filter with a single holder of the requested data.
system.cpu3.mmucache.mmubus.snoop_filter.hit_single_snoops            0                       # Number of snoops hitting in the snoop filter with a single holder of the requested data.
system.cpu3.mmucache.mmubus.snoop_filter.tot_requests            0                       # Total number of requests made to the snoop filter.
system.cpu3.mmucache.mmubus.snoop_filter.tot_snoops            0                       # Total number of snoops made to the snoop filter.
system.cpu3.not_idle_fraction                       1                       # Percentage of non-idle cycles
system.cpu3.numCycles                              30                       # number of cpu cycles simulated
system.cpu3.numWorkItemsCompleted                   0                       # number of work items this cpu completed
system.cpu3.numWorkItemsStarted                     0                       # number of work items this cpu started
system.cpu3.num_busy_cycles                        30                       # Number of busy cycles
system.cpu3.num_cc_register_reads                   6                       # number of times the CC registers were read
system.cpu3.num_cc_register_writes                  6                       # number of times the CC registers were written
system.cpu3.num_conditional_control_insts            1                       # number of instructions that are conditional controls
system.cpu3.num_fp_alu_accesses                    10                       # Number of float alu accesses
system.cpu3.num_fp_insts                           10                       # number of float instructions
system.cpu3.num_fp_register_reads                  10                       # number of times the floating registers were read
system.cpu3.num_fp_register_writes                  6                       # number of times the floating registers were written
system.cpu3.num_func_calls                          0                       # number of times a function call or return occured
system.cpu3.num_idle_cycles                         0                       # Number of idle cycles
system.cpu3.num_int_alu_accesses                   19                       # Number of integer alu accesses
system.cpu3.num_int_insts                          19                       # number of integer instructions
system.cpu3.num_int_register_reads                 42                       # number of times the integer registers were read
system.cpu3.num_int_register_writes                10                       # number of times the integer registers were written
system.cpu3.num_load_insts                          6                       # Number of load instructions
system.cpu3.num_mem_refs                           10                       # number of memory refs
system.cpu3.num_store_insts                         4                       # Number of store instructions
system.cpu3.num_vec_alu_accesses                    0                       # Number of vector alu accesses
system.cpu3.num_vec_insts                           0                       # number of vector instructions
system.cpu3.num_vec_register_reads                  0                       # number of times the vector registers were read
system.cpu3.num_vec_register_writes                 0                       # number of times the vector registers were written
system.cpu3.op_class::No_OpClass                    0      0.00%      0.00% # Class of executed instruction
system.cpu3.op_class::IntAlu                        9     42.86%     42.86% # Class of executed instruction
system.cpu3.op_class::IntMult                       0      0.00%     42.86% # Class of executed instruction
system.cpu3.op_class::IntDiv                        0      0.00%     42.86% # Class of executed instruction
system.cpu3.op_class::FloatAdd                      0      0.00%     42.86% # Class of executed instruction
system.cpu3.op_class::FloatCmp                      0      0.00%     42.86% # Class of executed instruction
system.cpu3.op_class::FloatCvt                      0      0.00%     42.86% # Class of executed instruction
system.cpu3.op_class::FloatMult                     0      0.00%     42.86% # Class of executed instruction
system.cpu3.op_class::FloatMultAcc                  0      0.00%     42.86% # Class of executed instruction
system.cpu3.op_class::FloatDiv                      0      0.00%     42.86% # Class of executed instruction
system.cpu3.op_class::FloatMisc                     0      0.00%     42.86% # Class of executed instruction
system.cpu3.op_class::FloatSqrt                     0      0.00%     42.86% # Class of executed instruction
system.cpu3.op_class::SimdAdd                       0      0.00%     42.86% # Class of executed instruction
system.cpu3.op_class::SimdAddAcc                    0      0.00%     42.86% # Class of executed instruction
system.cpu3.op_class::SimdAlu                       0      0.00%     42.86% # Class of executed instruction
system.cpu3.op_class::SimdCmp                       0      0.00%     42.86% # Class of executed instruction
system.cpu3.op_class::SimdCvt                       0      0.00%     42.86% # Class of executed instruction
system.cpu3.op_class::SimdMisc                      0      0.00%     42.86% # Class of executed instruction
system.cpu3.op_class::SimdMult                      0      0.00%     42.86% # Class of executed instruction
system.cpu3.op_class::SimdMultAcc                   0      0.00%     42.86% # Class of executed instruction
system.cpu3.op_class::SimdShift                     0      0.00%     42.86% # Class of executed instruction
system.cpu3.op_class::SimdShiftAcc                  0      0.00%     42.86% # Class of executed instruction
system.cpu3.op_class::SimdDiv                       0      0.00%     42.86% # Class of executed instruction
system.cpu3.op_class::SimdSqrt                      0      0.00%     42.86% # Class of executed instruction
system.cpu3.op_class::SimdFloatAdd                  2      9.52%     52.38% # Class of executed instruction
system.cpu3.op_class::SimdFloatAlu                  0      0.00%     52.38% # Class of executed instruction
system.cpu3.op_class::SimdFloatCmp                  0      0.00%     52.38% # Class of executed instruction
system.cpu3.op_class::SimdFloatCvt                  0      0.00%     52.38% # Class of executed instruction
system.cpu3.op_class::SimdFloatDiv                  0      0.00%     52.38% # Class of executed instruction
system.cpu3.op_class::SimdFloatMisc                 0      0.00%     52.38% # Class of executed instruction
system.cpu3.op_class::SimdFloatMult                 0      0.00%     52.38% # Class of executed instruction
system.cpu3.op_class::SimdFloatMultAcc              0      0.00%     52.38% # Class of executed instruction
system.cpu3.op_class::SimdFloatSqrt                 0      0.00%     52.38% # Class of executed instruction
system.cpu3.op_class::SimdReduceAdd                 0      0.00%     52.38% # Class of executed instruction
system.cpu3.op_class::SimdReduceAlu                 0      0.00%     52.38% # Class of executed instruction
system.cpu3.op_class::SimdReduceCmp                 0      0.00%     52.38% # Class of executed instruction
system.cpu3.op_class::SimdFloatReduceAdd            0      0.00%     52.38% # Class of executed instruction
system.cpu3.op_class::SimdFloatReduceCmp            0      0.00%     52.38% # Class of executed instruction
system.cpu3.op_class::SimdAes                       0      0.00%     52.38% # Class of executed instruction
system.cpu3.op_class::SimdAesMix                    0      0.00%     52.38% # Class of executed instruction
system.cpu3.op_class::SimdSha1Hash                  0      0.00%     52.38% # Class of executed instruction
system.cpu3.op_class::SimdSha1Hash2                 0      0.00%     52.38% # Class of executed instruction
system.cpu3.op_class::SimdSha256Hash                0      0.00%     52.38% # Class of executed instruction
system.cpu3.op_class::SimdSha256Hash2               0      0.00%     52.38% # Class of executed instruction
system.cpu3.op_class::SimdShaSigma2                 0      0.00%     52.38% # Class of executed instruction
system.cpu3.op_class::SimdShaSigma3                 0      0.00%     52.38% # Class of executed instruction
system.cpu3.op_class::SimdPredAlu                   0      0.00%     52.38% # Class of executed instruction
system.cpu3.op_class::MemRead                       2      9.52%     61.90% # Class of executed instruction
system.cpu3.op_class::MemWrite                      0      0.00%     61.90% # Class of executed instruction
system.cpu3.op_class::FloatMemRead                  4     19.05%     80.95% # Class of executed instruction
system.cpu3.op_class::FloatMemWrite                 4     19.05%    100.00% # Class of executed instruction
system.cpu3.op_class::IprAccess                     0      0.00%    100.00% # Class of executed instruction
system.cpu3.op_class::InstPrefetch                  0      0.00%    100.00% # Class of executed instruction
system.cpu3.op_class::total                        21                       # Class of executed instruction
system.cpu3.workload.numSyscalls                    0                       # Number of system calls
system.l3bus.snoop_filter.hit_multi_requests            0                       # Number of requests hitting in the snoop filter with multiple (>1) holders of the requested data.
system.l3bus.snoop_filter.hit_multi_snoops            0                       # Number of snoops hitting in the snoop filter with multiple (>1) holders of the requested data.
system.l3bus.snoop_filter.hit_single_requests      1457973                       # Number of requests hitting in the snoop filter with a single holder of the requested data.
system.l3bus.snoop_filter.hit_single_snoops            0                       # Number of snoops hitting in the snoop filter with a single holder of the requested data.
system.l3bus.snoop_filter.tot_requests        2933288                       # Total number of requests made to the snoop filter.
system.l3bus.snoop_filter.tot_snoops                0                       # Total number of snoops made to the snoop filter.
system.membus.snoop_filter.hit_multi_requests            0                       # Number of requests hitting in the snoop filter with multiple (>1) holders of the requested data.
system.membus.snoop_filter.hit_multi_snoops            0                       # Number of snoops hitting in the snoop filter with multiple (>1) holders of the requested data.
system.membus.snoop_filter.hit_single_requests       863821                       # Number of requests hitting in the snoop filter with a single holder of the requested data.
system.membus.snoop_filter.hit_single_snoops            0                       # Number of snoops hitting in the snoop filter with a single holder of the requested data.
system.membus.snoop_filter.tot_requests       1807738                       # Total number of requests made to the snoop filter.
system.membus.snoop_filter.tot_snoops               0                       # Total number of snoops made to the snoop filter.
system.switch_cpus0.cc_regfile_reads          2025049                       # number of cc regfile reads
system.switch_cpus0.cc_regfile_writes         1918338                       # number of cc regfile writes
system.switch_cpus0.committedInsts           52955158                       # Number of Instructions Simulated
system.switch_cpus0.committedOps             66048263                       # Number of Ops (including micro ops) Simulated
system.switch_cpus0.cpi                      1.729578                       # CPI: Cycles Per Instruction
system.switch_cpus0.cpi_total                1.729578                       # CPI: Total CPI of All Threads
system.switch_cpus0.fp_regfile_reads         88605736                       # number of floating regfile reads
system.switch_cpus0.fp_regfile_writes        49922898                       # number of floating regfile writes
system.switch_cpus0.idleCycles                 324549                       # Total number of cycles that the CPU has spent unscheduled due to idling
system.switch_cpus0.iew.branchMispredicts          164                       # Number of branch mispredicts detected at execute
system.switch_cpus0.iew.exec_branches          568478                       # Number of branches executed
system.switch_cpus0.iew.exec_nop                    0                       # number of nop insts executed
system.switch_cpus0.iew.exec_rate            0.721570                       # Inst execution rate
system.switch_cpus0.iew.exec_refs            29541056                       # number of memory reference insts executed
system.switch_cpus0.iew.exec_stores           4039345                       # Number of stores executed
system.switch_cpus0.iew.exec_swp                    0                       # number of swp insts executed
system.switch_cpus0.iew.iewBlockCycles           3356                       # Number of cycles IEW is blocking
system.switch_cpus0.iew.iewDispLoadInsts     25470286                       # Number of dispatched load instructions
system.switch_cpus0.iew.iewDispNonSpecInsts            0                       # Number of dispatched non-speculative instructions
system.switch_cpus0.iew.iewDispSquashedInsts          144                       # Number of squashed instructions skipped by dispatch
system.switch_cpus0.iew.iewDispStoreInsts      4039752                       # Number of dispatched store instructions
system.switch_cpus0.iew.iewDispatchedInsts     66059720                       # Number of instructions dispatched to IQ
system.switch_cpus0.iew.iewExecLoadInsts     25501711                       # Number of load instructions executed
system.switch_cpus0.iew.iewExecSquashedInsts          418                       # Number of squashed instructions skipped in execute
system.switch_cpus0.iew.iewExecutedInsts     66088661                       # Number of executed instructions
system.switch_cpus0.iew.iewIQFullEvents          1052                       # Number of times the IQ has become full, causing a stall
system.switch_cpus0.iew.iewIdleCycles               0                       # Number of cycles IEW is idle
system.switch_cpus0.iew.iewLSQFullEvents     12900023                       # Number of times the LSQ has become full, causing a stall
system.switch_cpus0.iew.iewSquashCycles           705                       # Number of cycles IEW is squashing
system.switch_cpus0.iew.iewUnblockCycles     12916355                       # Number of cycles IEW is unblocking
system.switch_cpus0.iew.memOrderViolationEvents          558                       # Number of memory order violations
system.switch_cpus0.iew.predictedNotTakenIncorrect          160                       # Number of branches that were predicted not taken incorrectly
system.switch_cpus0.iew.predictedTakenIncorrect            4                       # Number of branches that were predicted taken incorrectly
system.switch_cpus0.iew.wb_consumers         73111498                       # num instructions consuming a value
system.switch_cpus0.iew.wb_count             66056557                       # cumulative count of insts written-back
system.switch_cpus0.iew.wb_fanout            0.655759                       # average fanout of values written-back
system.switch_cpus0.iew.wb_producers         47943488                       # num instructions producing a value
system.switch_cpus0.iew.wb_rate              0.721220                       # insts written-back per cycle
system.switch_cpus0.iew.wb_sent              66056649                       # cumulative count of insts sent to commit
system.switch_cpus0.int_regfile_reads        64226680                       # number of integer regfile reads
system.switch_cpus0.int_regfile_writes       11428358                       # number of integer regfile writes
system.switch_cpus0.ipc                      0.578176                       # IPC: Instructions Per Cycle
system.switch_cpus0.ipc_total                0.578176                       # IPC: Total IPC of All Threads
system.switch_cpus0.iq.FU_type_0::No_OpClass           34      0.00%      0.00% # Type of FU issued
system.switch_cpus0.iq.FU_type_0::IntAlu     11142899     16.86%     16.86% # Type of FU issued
system.switch_cpus0.iq.FU_type_0::IntMult            0      0.00%     16.86% # Type of FU issued
system.switch_cpus0.iq.FU_type_0::IntDiv            0      0.00%     16.86% # Type of FU issued
system.switch_cpus0.iq.FU_type_0::FloatAdd       239656      0.36%     17.22% # Type of FU issued
system.switch_cpus0.iq.FU_type_0::FloatCmp            0      0.00%     17.22% # Type of FU issued
system.switch_cpus0.iq.FU_type_0::FloatCvt            0      0.00%     17.22% # Type of FU issued
system.switch_cpus0.iq.FU_type_0::FloatMult            0      0.00%     17.22% # Type of FU issued
system.switch_cpus0.iq.FU_type_0::FloatMultAcc            0      0.00%     17.22% # Type of FU issued
system.switch_cpus0.iq.FU_type_0::FloatDiv            0      0.00%     17.22% # Type of FU issued
system.switch_cpus0.iq.FU_type_0::FloatMisc            0      0.00%     17.22% # Type of FU issued
system.switch_cpus0.iq.FU_type_0::FloatSqrt            0      0.00%     17.22% # Type of FU issued
system.switch_cpus0.iq.FU_type_0::SimdAdd            0      0.00%     17.22% # Type of FU issued
system.switch_cpus0.iq.FU_type_0::SimdAddAcc            0      0.00%     17.22% # Type of FU issued
system.switch_cpus0.iq.FU_type_0::SimdAlu       177522      0.27%     17.49% # Type of FU issued
system.switch_cpus0.iq.FU_type_0::SimdCmp            0      0.00%     17.49% # Type of FU issued
system.switch_cpus0.iq.FU_type_0::SimdCvt            0      0.00%     17.49% # Type of FU issued
system.switch_cpus0.iq.FU_type_0::SimdMisc       106512      0.16%     17.65% # Type of FU issued
system.switch_cpus0.iq.FU_type_0::SimdMult            0      0.00%     17.65% # Type of FU issued
system.switch_cpus0.iq.FU_type_0::SimdMultAcc            0      0.00%     17.65% # Type of FU issued
system.switch_cpus0.iq.FU_type_0::SimdShift            0      0.00%     17.65% # Type of FU issued
system.switch_cpus0.iq.FU_type_0::SimdShiftAcc            0      0.00%     17.65% # Type of FU issued
system.switch_cpus0.iq.FU_type_0::SimdDiv            0      0.00%     17.65% # Type of FU issued
system.switch_cpus0.iq.FU_type_0::SimdSqrt            0      0.00%     17.65% # Type of FU issued
system.switch_cpus0.iq.FU_type_0::SimdFloatAdd     13900859     21.03%     38.69% # Type of FU issued
system.switch_cpus0.iq.FU_type_0::SimdFloatAlu            0      0.00%     38.69% # Type of FU issued
system.switch_cpus0.iq.FU_type_0::SimdFloatCmp        17752      0.03%     38.71% # Type of FU issued
system.switch_cpus0.iq.FU_type_0::SimdFloatCvt        97759      0.15%     38.86% # Type of FU issued
system.switch_cpus0.iq.FU_type_0::SimdFloatDiv        26628      0.04%     38.90% # Type of FU issued
system.switch_cpus0.iq.FU_type_0::SimdFloatMisc            0      0.00%     38.90% # Type of FU issued
system.switch_cpus0.iq.FU_type_0::SimdFloatMult     10838249     16.40%     55.30% # Type of FU issued
system.switch_cpus0.iq.FU_type_0::SimdFloatMultAcc            0      0.00%     55.30% # Type of FU issued
system.switch_cpus0.iq.FU_type_0::SimdFloatSqrt            0      0.00%     55.30% # Type of FU issued
system.switch_cpus0.iq.FU_type_0::SimdReduceAdd            0      0.00%     55.30% # Type of FU issued
system.switch_cpus0.iq.FU_type_0::SimdReduceAlu            0      0.00%     55.30% # Type of FU issued
system.switch_cpus0.iq.FU_type_0::SimdReduceCmp            0      0.00%     55.30% # Type of FU issued
system.switch_cpus0.iq.FU_type_0::SimdFloatReduceAdd            0      0.00%     55.30% # Type of FU issued
system.switch_cpus0.iq.FU_type_0::SimdFloatReduceCmp            0      0.00%     55.30% # Type of FU issued
system.switch_cpus0.iq.FU_type_0::SimdAes            0      0.00%     55.30% # Type of FU issued
system.switch_cpus0.iq.FU_type_0::SimdAesMix            0      0.00%     55.30% # Type of FU issued
system.switch_cpus0.iq.FU_type_0::SimdSha1Hash            0      0.00%     55.30% # Type of FU issued
system.switch_cpus0.iq.FU_type_0::SimdSha1Hash2            0      0.00%     55.30% # Type of FU issued
system.switch_cpus0.iq.FU_type_0::SimdSha256Hash            0      0.00%     55.30% # Type of FU issued
system.switch_cpus0.iq.FU_type_0::SimdSha256Hash2            0      0.00%     55.30% # Type of FU issued
system.switch_cpus0.iq.FU_type_0::SimdShaSigma2            0      0.00%     55.30% # Type of FU issued
system.switch_cpus0.iq.FU_type_0::SimdShaSigma3            0      0.00%     55.30% # Type of FU issued
system.switch_cpus0.iq.FU_type_0::SimdPredAlu            0      0.00%     55.30% # Type of FU issued
system.switch_cpus0.iq.FU_type_0::MemRead      5885044      8.90%     64.21% # Type of FU issued
system.switch_cpus0.iq.FU_type_0::MemWrite       701651      1.06%     65.27% # Type of FU issued
system.switch_cpus0.iq.FU_type_0::FloatMemRead     19616781     29.68%     94.95% # Type of FU issued
system.switch_cpus0.iq.FU_type_0::FloatMemWrite      3337733      5.05%    100.00% # Type of FU issued
system.switch_cpus0.iq.FU_type_0::IprAccess            0      0.00%    100.00% # Type of FU issued
system.switch_cpus0.iq.FU_type_0::InstPrefetch            0      0.00%    100.00% # Type of FU issued
system.switch_cpus0.iq.FU_type_0::total      66089079                       # Type of FU issued
system.switch_cpus0.iq.fp_alu_accesses       54160977                       # Number of floating point alu accesses
system.switch_cpus0.iq.fp_inst_queue_reads    107650910                       # Number of floating instruction queue reads
system.switch_cpus0.iq.fp_inst_queue_wakeup_accesses     53464643                       # Number of floating instruction queue wakeup accesses
system.switch_cpus0.iq.fp_inst_queue_writes     53475064                       # Number of floating instruction queue writes
system.switch_cpus0.iq.fu_busy_cnt             981050                       # FU busy when requested
system.switch_cpus0.iq.fu_busy_rate          0.014844                       # FU busy rate (busy events/executed inst)
system.switch_cpus0.iq.fu_full::No_OpClass            0      0.00%      0.00% # attempts to use FU when none available
system.switch_cpus0.iq.fu_full::IntAlu           7120      0.73%      0.73% # attempts to use FU when none available
system.switch_cpus0.iq.fu_full::IntMult             0      0.00%      0.73% # attempts to use FU when none available
system.switch_cpus0.iq.fu_full::IntDiv              0      0.00%      0.73% # attempts to use FU when none available
system.switch_cpus0.iq.fu_full::FloatAdd            0      0.00%      0.73% # attempts to use FU when none available
system.switch_cpus0.iq.fu_full::FloatCmp            0      0.00%      0.73% # attempts to use FU when none available
system.switch_cpus0.iq.fu_full::FloatCvt            0      0.00%      0.73% # attempts to use FU when none available
system.switch_cpus0.iq.fu_full::FloatMult            0      0.00%      0.73% # attempts to use FU when none available
system.switch_cpus0.iq.fu_full::FloatMultAcc            0      0.00%      0.73% # attempts to use FU when none available
system.switch_cpus0.iq.fu_full::FloatDiv            0      0.00%      0.73% # attempts to use FU when none available
system.switch_cpus0.iq.fu_full::FloatMisc            0      0.00%      0.73% # attempts to use FU when none available
system.switch_cpus0.iq.fu_full::FloatSqrt            0      0.00%      0.73% # attempts to use FU when none available
system.switch_cpus0.iq.fu_full::SimdAdd             0      0.00%      0.73% # attempts to use FU when none available
system.switch_cpus0.iq.fu_full::SimdAddAcc            0      0.00%      0.73% # attempts to use FU when none available
system.switch_cpus0.iq.fu_full::SimdAlu             0      0.00%      0.73% # attempts to use FU when none available
system.switch_cpus0.iq.fu_full::SimdCmp             0      0.00%      0.73% # attempts to use FU when none available
system.switch_cpus0.iq.fu_full::SimdCvt             0      0.00%      0.73% # attempts to use FU when none available
system.switch_cpus0.iq.fu_full::SimdMisc            0      0.00%      0.73% # attempts to use FU when none available
system.switch_cpus0.iq.fu_full::SimdMult            0      0.00%      0.73% # attempts to use FU when none available
system.switch_cpus0.iq.fu_full::SimdMultAcc            0      0.00%      0.73% # attempts to use FU when none available
system.switch_cpus0.iq.fu_full::SimdShift            0      0.00%      0.73% # attempts to use FU when none available
system.switch_cpus0.iq.fu_full::SimdShiftAcc            0      0.00%      0.73% # attempts to use FU when none available
system.switch_cpus0.iq.fu_full::SimdDiv             0      0.00%      0.73% # attempts to use FU when none available
system.switch_cpus0.iq.fu_full::SimdSqrt            0      0.00%      0.73% # attempts to use FU when none available
system.switch_cpus0.iq.fu_full::SimdFloatAdd           48      0.00%      0.73% # attempts to use FU when none available
system.switch_cpus0.iq.fu_full::SimdFloatAlu            0      0.00%      0.73% # attempts to use FU when none available
system.switch_cpus0.iq.fu_full::SimdFloatCmp            0      0.00%      0.73% # attempts to use FU when none available
system.switch_cpus0.iq.fu_full::SimdFloatCvt            0      0.00%      0.73% # attempts to use FU when none available
system.switch_cpus0.iq.fu_full::SimdFloatDiv            0      0.00%      0.73% # attempts to use FU when none available
system.switch_cpus0.iq.fu_full::SimdFloatMisc            0      0.00%      0.73% # attempts to use FU when none available
system.switch_cpus0.iq.fu_full::SimdFloatMult        57903      5.90%      6.63% # attempts to use FU when none available
system.switch_cpus0.iq.fu_full::SimdFloatMultAcc            0      0.00%      6.63% # attempts to use FU when none available
system.switch_cpus0.iq.fu_full::SimdFloatSqrt            0      0.00%      6.63% # attempts to use FU when none available
system.switch_cpus0.iq.fu_full::SimdReduceAdd            0      0.00%      6.63% # attempts to use FU when none available
system.switch_cpus0.iq.fu_full::SimdReduceAlu            0      0.00%      6.63% # attempts to use FU when none available
system.switch_cpus0.iq.fu_full::SimdReduceCmp            0      0.00%      6.63% # attempts to use FU when none available
system.switch_cpus0.iq.fu_full::SimdFloatReduceAdd            0      0.00%      6.63% # attempts to use FU when none available
system.switch_cpus0.iq.fu_full::SimdFloatReduceCmp            0      0.00%      6.63% # attempts to use FU when none available
system.switch_cpus0.iq.fu_full::SimdAes             0      0.00%      6.63% # attempts to use FU when none available
system.switch_cpus0.iq.fu_full::SimdAesMix            0      0.00%      6.63% # attempts to use FU when none available
system.switch_cpus0.iq.fu_full::SimdSha1Hash            0      0.00%      6.63% # attempts to use FU when none available
system.switch_cpus0.iq.fu_full::SimdSha1Hash2            0      0.00%      6.63% # attempts to use FU when none available
system.switch_cpus0.iq.fu_full::SimdSha256Hash            0      0.00%      6.63% # attempts to use FU when none available
system.switch_cpus0.iq.fu_full::SimdSha256Hash2            0      0.00%      6.63% # attempts to use FU when none available
system.switch_cpus0.iq.fu_full::SimdShaSigma2            0      0.00%      6.63% # attempts to use FU when none available
system.switch_cpus0.iq.fu_full::SimdShaSigma3            0      0.00%      6.63% # attempts to use FU when none available
system.switch_cpus0.iq.fu_full::SimdPredAlu            0      0.00%      6.63% # attempts to use FU when none available
system.switch_cpus0.iq.fu_full::MemRead        295107     30.08%     36.71% # attempts to use FU when none available
system.switch_cpus0.iq.fu_full::MemWrite         9037      0.92%     37.63% # attempts to use FU when none available
system.switch_cpus0.iq.fu_full::FloatMemRead       567667     57.86%     95.50% # attempts to use FU when none available
system.switch_cpus0.iq.fu_full::FloatMemWrite        44168      4.50%    100.00% # attempts to use FU when none available
system.switch_cpus0.iq.fu_full::IprAccess            0      0.00%    100.00% # attempts to use FU when none available
system.switch_cpus0.iq.fu_full::InstPrefetch            0      0.00%    100.00% # attempts to use FU when none available
system.switch_cpus0.iq.int_alu_accesses      12909118                       # Number of integer alu accesses
system.switch_cpus0.iq.int_inst_queue_reads    116773843                       # Number of integer instruction queue reads
system.switch_cpus0.iq.int_inst_queue_wakeup_accesses     12591914                       # Number of integer instruction queue wakeup accesses
system.switch_cpus0.iq.int_inst_queue_writes     12596656                       # Number of integer instruction queue writes
system.switch_cpus0.iq.iqInstsAdded          66059720                       # Number of instructions added to the IQ (excludes non-spec)
system.switch_cpus0.iq.iqInstsIssued         66089079                       # Number of instructions issued
system.switch_cpus0.iq.iqSquashedInstsExamined        11442                       # Number of squashed instructions iterated over during squash; mainly for profiling
system.switch_cpus0.iq.iqSquashedInstsIssued           21                       # Number of squashed instructions issued
system.switch_cpus0.iq.iqSquashedOperandsExamined         8977                       # Number of squashed operands that are examined and possibly removed from graph
system.switch_cpus0.iq.issued_per_cycle::samples     91265524                       # Number of insts issued each cycle
system.switch_cpus0.iq.issued_per_cycle::mean     0.724141                       # Number of insts issued each cycle
system.switch_cpus0.iq.issued_per_cycle::stdev     1.368494                       # Number of insts issued each cycle
system.switch_cpus0.iq.issued_per_cycle::underflows            0      0.00%      0.00% # Number of insts issued each cycle
system.switch_cpus0.iq.issued_per_cycle::0     62548010     68.53%     68.53% # Number of insts issued each cycle
system.switch_cpus0.iq.issued_per_cycle::1     12218588     13.39%     81.92% # Number of insts issued each cycle
system.switch_cpus0.iq.issued_per_cycle::2      6516307      7.14%     89.06% # Number of insts issued each cycle
system.switch_cpus0.iq.issued_per_cycle::3      3774457      4.14%     93.20% # Number of insts issued each cycle
system.switch_cpus0.iq.issued_per_cycle::4      3302107      3.62%     96.82% # Number of insts issued each cycle
system.switch_cpus0.iq.issued_per_cycle::5      1730581      1.90%     98.71% # Number of insts issued each cycle
system.switch_cpus0.iq.issued_per_cycle::6       727166      0.80%     99.51% # Number of insts issued each cycle
system.switch_cpus0.iq.issued_per_cycle::7       296287      0.32%     99.83% # Number of insts issued each cycle
system.switch_cpus0.iq.issued_per_cycle::8       152021      0.17%    100.00% # Number of insts issued each cycle
system.switch_cpus0.iq.issued_per_cycle::overflows            0      0.00%    100.00% # Number of insts issued each cycle
system.switch_cpus0.iq.issued_per_cycle::min_value            0                       # Number of insts issued each cycle
system.switch_cpus0.iq.issued_per_cycle::max_value            8                       # Number of insts issued each cycle
system.switch_cpus0.iq.issued_per_cycle::total     91265524                       # Number of insts issued each cycle
system.switch_cpus0.iq.rate                  0.721575                       # Inst issue rate
system.switch_cpus0.iq.vec_alu_accesses             0                       # Number of vector alu accesses
system.switch_cpus0.iq.vec_inst_queue_reads            0                       # Number of vector instruction queue reads
system.switch_cpus0.iq.vec_inst_queue_wakeup_accesses            0                       # Number of vector instruction queue wakeup accesses
system.switch_cpus0.iq.vec_inst_queue_writes            0                       # Number of vector instruction queue writes
system.switch_cpus0.memDep0.conflictingLoads        49142                       # Number of conflicting loads.
system.switch_cpus0.memDep0.conflictingStores         7234                       # Number of conflicting stores.
system.switch_cpus0.memDep0.insertedLoads     25470286                       # Number of loads inserted to the mem dependence unit.
system.switch_cpus0.memDep0.insertedStores      4039752                       # Number of stores inserted to the mem dependence unit.
system.switch_cpus0.misc_regfile_reads       33172334                       # number of misc regfile reads
system.switch_cpus0.misc_regfile_writes             1                       # number of misc regfile writes
system.switch_cpus0.numCycles                91590073                       # number of cpu cycles simulated
system.switch_cpus0.numWorkItemsCompleted            0                       # number of work items this cpu completed
system.switch_cpus0.numWorkItemsStarted             0                       # number of work items this cpu started
system.switch_cpus0.timesIdled                  48425                       # Number of times that the entire CPU went into an idle state and unscheduled itself
system.switch_cpus1.cc_regfile_reads         86926384                       # number of cc regfile reads
system.switch_cpus1.cc_regfile_writes       102656001                       # number of cc regfile writes
system.switch_cpus1.committedInsts          101358175                       # Number of Instructions Simulated
system.switch_cpus1.committedOps            147030580                       # Number of Ops (including micro ops) Simulated
system.switch_cpus1.cpi                      0.903628                       # CPI: Cycles Per Instruction
system.switch_cpus1.cpi_total                0.903628                       # CPI: Total CPI of All Threads
system.switch_cpus1.fp_regfile_reads          2570102                       # number of floating regfile reads
system.switch_cpus1.fp_regfile_writes         2557204                       # number of floating regfile writes
system.switch_cpus1.idleCycles                  58707                       # Total number of cycles that the CPU has spent unscheduled due to idling
system.switch_cpus1.iew.branchMispredicts      1381424                       # Number of branch mispredicts detected at execute
system.switch_cpus1.iew.exec_branches        15976240                       # Number of branches executed
system.switch_cpus1.iew.exec_nop                    0                       # number of nop insts executed
system.switch_cpus1.iew.exec_rate            2.186645                       # Inst execution rate
system.switch_cpus1.iew.exec_refs            34670742                       # number of memory reference insts executed
system.switch_cpus1.iew.exec_stores          10672219                       # Number of stores executed
system.switch_cpus1.iew.exec_swp                    0                       # number of swp insts executed
system.switch_cpus1.iew.iewBlockCycles       18284920                       # Number of cycles IEW is blocking
system.switch_cpus1.iew.iewDispLoadInsts     28112036                       # Number of dispatched load instructions
system.switch_cpus1.iew.iewDispNonSpecInsts            0                       # Number of dispatched non-speculative instructions
system.switch_cpus1.iew.iewDispSquashedInsts         2352                       # Number of squashed instructions skipped by dispatch
system.switch_cpus1.iew.iewDispStoreInsts     15094843                       # Number of dispatched store instructions
system.switch_cpus1.iew.iewDispatchedInsts    253147113                       # Number of instructions dispatched to IQ
system.switch_cpus1.iew.iewExecLoadInsts     23998523                       # Number of load instructions executed
system.switch_cpus1.iew.iewExecSquashedInsts      2477119                       # Number of squashed instructions skipped in execute
system.switch_cpus1.iew.iewExecutedInsts    200275018                       # Number of executed instructions
system.switch_cpus1.iew.iewIQFullEvents         54951                       # Number of times the IQ has become full, causing a stall
system.switch_cpus1.iew.iewIdleCycles               0                       # Number of cycles IEW is idle
system.switch_cpus1.iew.iewLSQFullEvents       277367                       # Number of times the LSQ has become full, causing a stall
system.switch_cpus1.iew.iewSquashCycles       1345800                       # Number of cycles IEW is squashing
system.switch_cpus1.iew.iewUnblockCycles       325174                       # Number of cycles IEW is unblocking
system.switch_cpus1.iew.memOrderViolationEvents         8117                       # Number of memory order violations
system.switch_cpus1.iew.predictedNotTakenIncorrect       544414                       # Number of branches that were predicted not taken incorrectly
system.switch_cpus1.iew.predictedTakenIncorrect       837010                       # Number of branches that were predicted taken incorrectly
system.switch_cpus1.iew.wb_consumers        292393960                       # num instructions consuming a value
system.switch_cpus1.iew.wb_count            198342924                       # cumulative count of insts written-back
system.switch_cpus1.iew.wb_fanout            0.543113                       # average fanout of values written-back
system.switch_cpus1.iew.wb_producers        158803053                       # num instructions producing a value
system.switch_cpus1.iew.wb_rate              2.165550                       # insts written-back per cycle
system.switch_cpus1.iew.wb_sent             200054469                       # cumulative count of insts sent to commit
system.switch_cpus1.int_regfile_reads       322077006                       # number of integer regfile reads
system.switch_cpus1.int_regfile_writes      173347628                       # number of integer regfile writes
system.switch_cpus1.ipc                      1.106650                       # IPC: Instructions Per Cycle
system.switch_cpus1.ipc_total                1.106650                       # IPC: Total IPC of All Threads
system.switch_cpus1.iq.FU_type_0::No_OpClass      1267066      0.62%      0.62% # Type of FU issued
system.switch_cpus1.iq.FU_type_0::IntAlu    161961637     79.88%     80.51% # Type of FU issued
system.switch_cpus1.iq.FU_type_0::IntMult      3763979      1.86%     82.36% # Type of FU issued
system.switch_cpus1.iq.FU_type_0::IntDiv            0      0.00%     82.36% # Type of FU issued
system.switch_cpus1.iq.FU_type_0::FloatAdd            0      0.00%     82.36% # Type of FU issued
system.switch_cpus1.iq.FU_type_0::FloatCmp            0      0.00%     82.36% # Type of FU issued
system.switch_cpus1.iq.FU_type_0::FloatCvt            0      0.00%     82.36% # Type of FU issued
system.switch_cpus1.iq.FU_type_0::FloatMult            0      0.00%     82.36% # Type of FU issued
system.switch_cpus1.iq.FU_type_0::FloatMultAcc            0      0.00%     82.36% # Type of FU issued
system.switch_cpus1.iq.FU_type_0::FloatDiv            0      0.00%     82.36% # Type of FU issued
system.switch_cpus1.iq.FU_type_0::FloatMisc            0      0.00%     82.36% # Type of FU issued
system.switch_cpus1.iq.FU_type_0::FloatSqrt            0      0.00%     82.36% # Type of FU issued
system.switch_cpus1.iq.FU_type_0::SimdAdd            0      0.00%     82.36% # Type of FU issued
system.switch_cpus1.iq.FU_type_0::SimdAddAcc            0      0.00%     82.36% # Type of FU issued
system.switch_cpus1.iq.FU_type_0::SimdAlu            0      0.00%     82.36% # Type of FU issued
system.switch_cpus1.iq.FU_type_0::SimdCmp            0      0.00%     82.36% # Type of FU issued
system.switch_cpus1.iq.FU_type_0::SimdCvt            0      0.00%     82.36% # Type of FU issued
system.switch_cpus1.iq.FU_type_0::SimdMisc            0      0.00%     82.36% # Type of FU issued
system.switch_cpus1.iq.FU_type_0::SimdMult            0      0.00%     82.36% # Type of FU issued
system.switch_cpus1.iq.FU_type_0::SimdMultAcc            0      0.00%     82.36% # Type of FU issued
system.switch_cpus1.iq.FU_type_0::SimdShift            0      0.00%     82.36% # Type of FU issued
system.switch_cpus1.iq.FU_type_0::SimdShiftAcc            0      0.00%     82.36% # Type of FU issued
system.switch_cpus1.iq.FU_type_0::SimdDiv            0      0.00%     82.36% # Type of FU issued
system.switch_cpus1.iq.FU_type_0::SimdSqrt            0      0.00%     82.36% # Type of FU issued
system.switch_cpus1.iq.FU_type_0::SimdFloatAdd            0      0.00%     82.36% # Type of FU issued
system.switch_cpus1.iq.FU_type_0::SimdFloatAlu            0      0.00%     82.36% # Type of FU issued
system.switch_cpus1.iq.FU_type_0::SimdFloatCmp            0      0.00%     82.36% # Type of FU issued
system.switch_cpus1.iq.FU_type_0::SimdFloatCvt            0      0.00%     82.36% # Type of FU issued
system.switch_cpus1.iq.FU_type_0::SimdFloatDiv            0      0.00%     82.36% # Type of FU issued
system.switch_cpus1.iq.FU_type_0::SimdFloatMisc            0      0.00%     82.36% # Type of FU issued
system.switch_cpus1.iq.FU_type_0::SimdFloatMult            0      0.00%     82.36% # Type of FU issued
system.switch_cpus1.iq.FU_type_0::SimdFloatMultAcc            0      0.00%     82.36% # Type of FU issued
system.switch_cpus1.iq.FU_type_0::SimdFloatSqrt            0      0.00%     82.36% # Type of FU issued
system.switch_cpus1.iq.FU_type_0::SimdReduceAdd            0      0.00%     82.36% # Type of FU issued
system.switch_cpus1.iq.FU_type_0::SimdReduceAlu            0      0.00%     82.36% # Type of FU issued
system.switch_cpus1.iq.FU_type_0::SimdReduceCmp            0      0.00%     82.36% # Type of FU issued
system.switch_cpus1.iq.FU_type_0::SimdFloatReduceAdd            0      0.00%     82.36% # Type of FU issued
system.switch_cpus1.iq.FU_type_0::SimdFloatReduceCmp            0      0.00%     82.36% # Type of FU issued
system.switch_cpus1.iq.FU_type_0::SimdAes            0      0.00%     82.36% # Type of FU issued
system.switch_cpus1.iq.FU_type_0::SimdAesMix            0      0.00%     82.36% # Type of FU issued
system.switch_cpus1.iq.FU_type_0::SimdSha1Hash            0      0.00%     82.36% # Type of FU issued
system.switch_cpus1.iq.FU_type_0::SimdSha1Hash2            0      0.00%     82.36% # Type of FU issued
system.switch_cpus1.iq.FU_type_0::SimdSha256Hash            0      0.00%     82.36% # Type of FU issued
system.switch_cpus1.iq.FU_type_0::SimdSha256Hash2            0      0.00%     82.36% # Type of FU issued
system.switch_cpus1.iq.FU_type_0::SimdShaSigma2            0      0.00%     82.36% # Type of FU issued
[...]
system.switch_cpus3.commit.numCommittedDist::stdev     3.418324                       # Number of insts commited each cycle
system.switch_cpus3.commit.numCommittedDist::underflows            0      0.00%      0.00% # Number of insts commited each cycle
system.switch_cpus3.commit.numCommittedDist::0     30310838     33.41%     33.41% # Number of insts commited each cycle
system.switch_cpus3.commit.numCommittedDist::1     15299572     16.86%     50.27% # Number of insts commited each cycle
system.switch_cpus3.commit.numCommittedDist::2      5939451      6.55%     56.82% # Number of insts commited each cycle
system.switch_cpus3.commit.numCommittedDist::3      5487003      6.05%     62.87% # Number of insts commited each cycle
system.switch_cpus3.commit.numCommittedDist::4      1419573      1.56%     64.43% # Number of insts commited each cycle
system.switch_cpus3.commit.numCommittedDist::5      1046495      1.15%     65.59% # Number of insts commited each cycle
system.switch_cpus3.commit.numCommittedDist::6      2769833      3.05%     68.64% # Number of insts commited each cycle
system.switch_cpus3.commit.numCommittedDist::7      1644305      1.81%     70.45% # Number of insts commited each cycle
system.switch_cpus3.commit.numCommittedDist::8     26808954     29.55%    100.00% # Number of insts commited each cycle
system.switch_cpus3.commit.numCommittedDist::overflows            0      0.00%    100.00% # Number of insts commited each cycle
system.switch_cpus3.commit.numCommittedDist::min_value            0                       # Number of insts commited each cycle
system.switch_cpus3.commit.numCommittedDist::max_value            8                       # Number of insts commited each cycle
system.switch_cpus3.commit.numCommittedDist::total     90726024                       # Number of insts commited each cycle
system.switch_cpus3.commit.instsCommitted    250000006                       # Number of instructions committed
system.switch_cpus3.commit.opsCommitted     297151015                       # Number of ops (including micro ops) committed
system.switch_cpus3.commit.memRefs           97847752                       # Number of memory references committed
system.switch_cpus3.commit.loads             74300017                       # Number of loads committed
system.switch_cpus3.commit.amos                     0                       # Number of atomic instructions committed
system.switch_cpus3.commit.membars                  0                       # Number of memory barriers committed
system.switch_cpus3.commit.branches           2648180                       # Number of branches committed
system.switch_cpus3.commit.vector                   0                       # Number of committed Vector instructions.
system.switch_cpus3.commit.floating         219293270                       # Number of committed floating point instructions.
system.switch_cpus3.commit.integer          161118285                       # Number of committed integer instructions.
system.switch_cpus3.commit.functionCalls        88561                       # Number of function calls committed.
system.switch_cpus3.commit.committedInstType_0::No_OpClass        50193      0.02%      0.02% # Class of committed instruction
system.switch_cpus3.commit.committedInstType_0::IntAlu     84341237     28.38%     28.40% # Class of committed instruction
system.switch_cpus3.commit.committedInstType_0::IntMult        30135      0.01%     28.41% # Class of committed instruction
system.switch_cpus3.commit.committedInstType_0::IntDiv            0      0.00%     28.41% # Class of committed instruction
system.switch_cpus3.commit.committedInstType_0::FloatAdd            0      0.00%     28.41% # Class of committed instruction
system.switch_cpus3.commit.committedInstType_0::FloatCmp            0      0.00%     28.41% # Class of committed instruction
system.switch_cpus3.commit.committedInstType_0::FloatCvt            0      0.00%     28.41% # Class of committed instruction
system.switch_cpus3.commit.committedInstType_0::FloatMult            0      0.00%     28.41% # Class of committed instruction
system.switch_cpus3.commit.committedInstType_0::FloatMultAcc            0      0.00%     28.41% # Class of committed instruction
system.switch_cpus3.commit.committedInstType_0::FloatDiv            0      0.00%     28.41% # Class of committed instruction
system.switch_cpus3.commit.committedInstType_0::FloatMisc            0      0.00%     28.41% # Class of committed instruction
system.switch_cpus3.commit.committedInstType_0::FloatSqrt            0      0.00%     28.41% # Class of committed instruction
system.switch_cpus3.commit.committedInstType_0::SimdAdd            0      0.00%     28.41% # Class of committed instruction
system.switch_cpus3.commit.committedInstType_0::SimdAddAcc            0      0.00%     28.41% # Class of committed instruction
system.switch_cpus3.commit.committedInstType_0::SimdAlu       165110      0.06%     28.47% # Class of committed instruction
system.switch_cpus3.commit.committedInstType_0::SimdCmp            0      0.00%     28.47% # Class of committed instruction
system.switch_cpus3.commit.committedInstType_0::SimdCvt            0      0.00%     28.47% # Class of committed instruction
system.switch_cpus3.commit.committedInstType_0::SimdMisc          738      0.00%     28.47% # Class of committed instruction
system.switch_cpus3.commit.committedInstType_0::SimdMult            0      0.00%     28.47% # Class of committed instruction
system.switch_cpus3.commit.committedInstType_0::SimdMultAcc            0      0.00%     28.47% # Class of committed instruction
system.switch_cpus3.commit.committedInstType_0::SimdShift            0      0.00%     28.47% # Class of committed instruction
system.switch_cpus3.commit.committedInstType_0::SimdShiftAcc            0      0.00%     28.47% # Class of committed instruction
system.switch_cpus3.commit.committedInstType_0::SimdDiv            0      0.00%     28.47% # Class of committed instruction
system.switch_cpus3.commit.committedInstType_0::SimdSqrt            0      0.00%     28.47% # Class of committed instruction
system.switch_cpus3.commit.committedInstType_0::SimdFloatAdd     55512958     18.68%     47.15% # Class of committed instruction
system.switch_cpus3.commit.committedInstType_0::SimdFloatAlu            0      0.00%     47.15% # Class of committed instruction
system.switch_cpus3.commit.committedInstType_0::SimdFloatCmp            0      0.00%     47.15% # Class of committed instruction
system.switch_cpus3.commit.committedInstType_0::SimdFloatCvt      3365433      1.13%     48.28% # Class of committed instruction
system.switch_cpus3.commit.committedInstType_0::SimdFloatDiv            0      0.00%     48.28% # Class of committed instruction
system.switch_cpus3.commit.committedInstType_0::SimdFloatMisc            0      0.00%     48.28% # Class of committed instruction
system.switch_cpus3.commit.committedInstType_0::SimdFloatMult     55837459     18.79%     67.07% # Class of committed instruction
system.switch_cpus3.commit.committedInstType_0::SimdFloatMultAcc            0      0.00%     67.07% # Class of committed instruction
system.switch_cpus3.commit.committedInstType_0::SimdFloatSqrt            0      0.00%     67.07% # Class of committed instruction
system.switch_cpus3.commit.committedInstType_0::SimdReduceAdd            0      0.00%     67.07% # Class of committed instruction
system.switch_cpus3.commit.committedInstType_0::SimdReduceAlu            0      0.00%     67.07% # Class of committed instruction
system.switch_cpus3.commit.committedInstType_0::SimdReduceCmp            0      0.00%     67.07% # Class of committed instruction
system.switch_cpus3.commit.committedInstType_0::SimdFloatReduceAdd            0      0.00%     67.07% # Class of committed instruction
system.switch_cpus3.commit.committedInstType_0::SimdFloatReduceCmp            0      0.00%     67.07% # Class of committed instruction
system.switch_cpus3.commit.committedInstType_0::SimdAes            0      0.00%     67.07% # Class of committed instruction
system.switch_cpus3.commit.committedInstType_0::SimdAesMix            0      0.00%     67.07% # Class of committed instruction
system.switch_cpus3.commit.committedInstType_0::SimdSha1Hash            0      0.00%     67.07% # Class of committed instruction
system.switch_cpus3.commit.committedInstType_0::SimdSha1Hash2            0      0.00%     67.07% # Class of committed instruction
system.switch_cpus3.commit.committedInstType_0::SimdSha256Hash            0      0.00%     67.07% # Class of committed instruction
system.switch_cpus3.commit.committedInstType_0::SimdSha256Hash2            0      0.00%     67.07% # Class of committed instruction
system.switch_cpus3.commit.committedInstType_0::SimdShaSigma2            0      0.00%     67.07% # Class of committed instruction
system.switch_cpus3.commit.committedInstType_0::SimdShaSigma3            0      0.00%     67.07% # Class of committed instruction
system.switch_cpus3.commit.committedInstType_0::SimdPredAlu            0      0.00%     67.07% # Class of committed instruction
system.switch_cpus3.commit.committedInstType_0::MemRead     10553041      3.55%     70.62% # Class of committed instruction
system.switch_cpus3.commit.committedInstType_0::MemWrite      3960331      1.33%     71.96% # Class of committed instruction
system.switch_cpus3.commit.committedInstType_0::FloatMemRead     63746976     21.45%     93.41% # Class of committed instruction
system.switch_cpus3.commit.committedInstType_0::FloatMemWrite     19587404      6.59%    100.00% # Class of committed instruction
system.switch_cpus3.commit.committedInstType_0::IprAccess            0      0.00%    100.00% # Class of committed instruction
system.switch_cpus3.commit.committedInstType_0::InstPrefetch            0      0.00%    100.00% # Class of committed instruction
system.switch_cpus3.commit.committedInstType_0::total    297151015                       # Class of committed instruction
system.switch_cpus3.commit.commitEligibleSamples     26808954                       # number cycles where commit BW limit reached
system.switch_cpus3.decode.idleCycles         5444477                       # Number of cycles decode is idle
system.switch_cpus3.decode.blockedCycles     47108954                       # Number of cycles decode is blocked
system.switch_cpus3.decode.runCycles         27954508                       # Number of cycles decode is running
system.switch_cpus3.decode.unblockCycles     10907805                       # Number of cycles decode is unblocking
system.switch_cpus3.decode.squashCycles        153428                       # Number of cycles decode is squashing
system.switch_cpus3.decode.branchResolved      2689903                       # Number of times decode resolved a  branch
system.switch_cpus3.decode.branchMispred           23                       # Number of times decode detected a branch misprediction
system.switch_cpus3.decode.decodedInsts     305773892                       # Number of instructions handled by decode
system.switch_cpus3.decode.squashedInsts           94                       # Number of squashed instructions handled by decode
system.switch_cpus3.dtb.rdAccesses           74734646                       # TLB accesses on read requests
system.switch_cpus3.dtb.wrAccesses           23618060                       # TLB accesses on write requests
system.switch_cpus3.dtb.rdMisses                 4884                       # TLB misses on read requests
system.switch_cpus3.dtb.wrMisses                   23                       # TLB misses on write requests
system.switch_cpus3.dtb.walker.power_state.pwrStateResidencyTicks::UNDEFINED 13975657988364                       # Cumulative time (in ticks) in various power states
system.switch_cpus3.fetch.icacheStallCycles       117254                       # Number of cycles fetch is stalled on an Icache miss
system.switch_cpus3.fetch.insts             259238652                       # Number of instructions fetch has processed
system.switch_cpus3.fetch.branches            3148843                       # Number of branches that fetch encountered
system.switch_cpus3.fetch.predictedBranches      2887265                       # Number of branches that fetch has predicted taken
system.switch_cpus3.fetch.cycles             91298486                       # Number of cycles fetch has run and was not squashing or blocked
system.switch_cpus3.fetch.squashCycles         306900                       # Number of cycles fetch has spent squashing
system.switch_cpus3.fetch.cacheLines         20651915                       # Number of cache lines fetched
system.switch_cpus3.fetch.icacheSquashes           62                       # Number of outstanding Icache misses that were squashed
system.switch_cpus3.fetch.nisnDist::samples     91569190                       # Number of instructions fetched each cycle (Total)
system.switch_cpus3.fetch.nisnDist::mean     3.374523                       # Number of instructions fetched each cycle (Total)
system.switch_cpus3.fetch.nisnDist::stdev     3.571235                       # Number of instructions fetched each cycle (Total)
system.switch_cpus3.fetch.nisnDist::underflows            0      0.00%      0.00% # Number of instructions fetched each cycle (Total)
system.switch_cpus3.fetch.nisnDist::0        42999803     46.96%     46.96% # Number of instructions fetched each cycle (Total)
system.switch_cpus3.fetch.nisnDist::1         2272479      2.48%     49.44% # Number of instructions fetched each cycle (Total)
system.switch_cpus3.fetch.nisnDist::2         2441832      2.67%     52.11% # Number of instructions fetched each cycle (Total)
system.switch_cpus3.fetch.nisnDist::3         1445273      1.58%     53.69% # Number of instructions fetched each cycle (Total)
system.switch_cpus3.fetch.nisnDist::4         7055741      7.71%     61.39% # Number of instructions fetched each cycle (Total)
system.switch_cpus3.fetch.nisnDist::5         1067397      1.17%     62.56% # Number of instructions fetched each cycle (Total)
system.switch_cpus3.fetch.nisnDist::6         3378213      3.69%     66.25% # Number of instructions fetched each cycle (Total)
system.switch_cpus3.fetch.nisnDist::7         3586479      3.92%     70.16% # Number of instructions fetched each cycle (Total)
system.switch_cpus3.fetch.nisnDist::8        27321973     29.84%    100.00% # Number of instructions fetched each cycle (Total)
system.switch_cpus3.fetch.nisnDist::overflows            0      0.00%    100.00% # Number of instructions fetched each cycle (Total)
system.switch_cpus3.fetch.nisnDist::min_value            0                       # Number of instructions fetched each cycle (Total)
system.switch_cpus3.fetch.nisnDist::max_value            8                       # Number of instructions fetched each cycle (Total)
system.switch_cpus3.fetch.nisnDist::total     91569190                       # Number of instructions fetched each cycle (Total)
system.switch_cpus3.fetch.branchRate         0.034380                       # Number of branch fetches per cycle
system.switch_cpus3.fetch.rate               2.830423                       # Number of inst fetches per cycle
system.switch_cpus3.itb.rdAccesses                  0                       # TLB accesses on read requests
system.switch_cpus3.itb.wrAccesses           20651915                       # TLB accesses on write requests
system.switch_cpus3.itb.rdMisses                    0                       # TLB misses on read requests
system.switch_cpus3.itb.wrMisses                   13                       # TLB misses on write requests
system.switch_cpus3.itb.walker.power_state.pwrStateResidencyTicks::UNDEFINED 13975657988364                       # Cumulative time (in ticks) in various power states
system.switch_cpus3.lsq0.forwLoads            3707353                       # Number of loads that had data forwarded from stores
system.switch_cpus3.lsq0.squashedLoads        1047107                       # Number of loads squashed
system.switch_cpus3.lsq0.ignoredResponses          190                       # Number of memory responses ignored because the instruction is squashed
system.switch_cpus3.lsq0.memOrderViolation         4105                       # Number of memory ordering violations
system.switch_cpus3.lsq0.squashedStores        151372                       # Number of stores squashed
system.switch_cpus3.lsq0.rescheduledLoads           18                       # Number of loads that were rescheduled
system.switch_cpus3.lsq0.blockedByCache             2                       # Number of times an access to memory failed due to the cache being blocked
system.switch_cpus3.power_state.pwrStateResidencyTicks::OFF  30499504632                       # Cumulative time (in ticks) in various power states
system.switch_cpus3.rename.squashCycles        153428                       # Number of cycles rename is squashing
system.switch_cpus3.rename.idleCycles        10467881                       # Number of cycles rename is idle
system.switch_cpus3.rename.blockCycles       17969923                       # Number of cycles rename is blocking
system.switch_cpus3.rename.serializeStallCycles            0                       # count of cycles rename stalledfor serializing inst
system.switch_cpus3.rename.runCycles         33756735                       # Number of cycles rename is running
system.switch_cpus3.rename.unblockCycles     29221205                       # Number of cycles rename is unblocking
system.switch_cpus3.rename.renamedInsts     304775357                       # Number of instructions processed by rename
system.switch_cpus3.rename.ROBFullEvents       625759                       # Number of times rename has blocked due to ROB full
system.switch_cpus3.rename.IQFullEvents       8564567                       # Number of times rename has blocked due to IQ full
system.switch_cpus3.rename.LQFullEvents      17346459                       # Number of times rename has blocked due to LQ full
system.switch_cpus3.rename.SQFullEvents         83153                       # Number of times rename has blocked due to SQ full
system.switch_cpus3.rename.renamedOperands    331546876                       # Number of destination operands rename has renamed
system.switch_cpus3.rename.lookups          878992213                       # Number of register rename lookups that rename has made
system.switch_cpus3.rename.intLookups       317203024                       # Number of integer rename lookups
system.switch_cpus3.rename.fpLookups        409403206                       # Number of floating rename lookups
system.switch_cpus3.rename.committedMaps    322157056                       # Number of HB maps that are committed
system.switch_cpus3.rename.undoneMaps         9389722                       # Number of HB maps that are undone due to squashing
system.switch_cpus3.rename.serializing              0                       # count of serializing insts renamed
system.switch_cpus3.rename.tempSerializing            0                       # count of temporary serializing insts renamed
system.switch_cpus3.rename.skidInsts         57370009                       # count of insts added to the skid buffer
system.switch_cpus3.rob.reads               367067291                       # The number of ROB reads
system.switch_cpus3.rob.writes              607149477                       # The number of ROB writes
system.switch_cpus3.thread0.numInsts        250000006                       # Number of Instructions committed
system.switch_cpus3.thread0.numOps          297151015                       # Number of Ops committed
system.switch_cpus3.thread0.numMemRefs              0                       # Number of Memory References
system.voltage_domain.voltage                       1                       # Voltage in Volts

---------- End Simulation Statistics   ----------
