Command line:
./runscript_pride.sh blender RFM5.BR2.4C 4 2017 --rh_defense --rh_mitigation=RFM --rh_rfm_per_trefi=5 --rh_rfm_blast_radius=2 --rh_rfm_maxacts_per_trefi=79
Global frequency set at 1000000000000 ticks per second
RFM details - rfm_act_threshold: 15, blast_radius: 2, delay_per_rfm: 175000 ps. sample_rate: 0.062500
RH Defense config: RFM, Bus Delay: 0, rfms_per_trefi: 5, rfm_act_threshold: 15, blast_radius: 2,rfm_delay_per_act: 45000 ps.
DRAM config: RowsPerBank: 65536, BanksPerRank: 32, RanksPerChannel: 1
warn: Sockets disabled, not accepting gdb connections
warn: CoherentXBar system.cpu0.mmucache.mmubus has no snooping ports attached!
warn: CoherentXBar system.cpu1.mmucache.mmubus has no snooping ports attached!
warn: CoherentXBar system.cpu2.mmucache.mmubus has no snooping ports attached!
warn: CoherentXBar system.cpu3.mmucache.mmubus has no snooping ports attached!
warn: Checkpoints for file descriptors currently do not work.
warn: Checkpoints for file descriptors currently do not work.
warn: Checkpoints for file descriptors currently do not work.
warn: Checkpoints for file descriptors currently do not work.
gem5 Simulator System.  http://gem5.org
gem5 is copyrighted software; use the --copyright option for details.

gem5 version 20.1.0.5
gem5 compiled Jul 12 2024 12:42:38
gem5 started Aug  1 2024 18:02:14
gem5 executing on a07dda8b130c, pid 250751
command line: /home/user/PrIDE/performance/gem5/build/X86/gem5.opt --outdir=/home/user/PrIDE/performance/gem5/stats/pride_multiprogram_16GBmem_250Mn.SPEC2017.C4/RFM5.BR2.4C/blender /home/user/PrIDE/performance/gem5/configs/example/se_rq_spec_config_multicore.py --redirects /lib64=/home/utils/gcc-6.2.0/lib64 --benchmark=blender --benchmark_stdout=/home/user/PrIDE/performance/gem5/stats/pride_multiprogram_16GBmem_250Mn.SPEC2017.C4/RFM5.BR2.4C/blender/blender.out --benchmark_stderr=/home/user/PrIDE/performance/gem5/stats/pride_multiprogram_16GBmem_250Mn.SPEC2017.C4/RFM5.BR2.4C/blender/blender.err --spec-version=2017 --rh_defense --rh_mitigation=RFM --rh_rfm_per_trefi=5 --rh_rfm_blast_radius=2 --rh_rfm_maxacts_per_trefi=79 --num-cpus=4 --mem-size=16GB --mem-type=DDR5_2400_32x4 --mem-ranks=1 --mem-channels=1 --checkpoint-dir=/home/user/PrIDE/performance/gem5/cpts-DDR5/multiprogram_16GBmem_25Bn.SPEC2017.C4/blender-1-ref-x86 --checkpoint-restore=25000000000 --at-instruction --cpu-type DerivO3CPU --caches --l2cache --l1d_size=32kB --l1i_size=32kB --l2_size=256kB --l3_size=4MB --l1d_assoc=8 --l1i_assoc=8 --l2_assoc=16 --l3_assoc=16 --cpu-clock=3GHz --sys-clock=3GHz --maxinsts=250000000 --prog-interval=300Hz

info: Standard input is not a terminal, disabling listeners.
Benchmark- 0   blender
Selected benchmark
--> blender
CMD: ['/opt/spec2017/benchspec/CPU/526.blender_r/run/run_base_refrate_gem5_se-m64.0000/blender_r_base.gem5_se-m64', '/opt/spec2017/benchspec/CPU/526.blender_r/run/run_base_refrate_gem5_se-m64.0000/sh3_no_char.blend', '--render-output', 'sh3_no_char_', '--threads', '1', '-b', '-F', 'RAWTGA', '-s', '849', '-e', '849', '-a']
CWD: /opt/spec2017/benchspec/CPU/526.blender_r/run/run_base_refrate_gem5_se-m64.0000/
Process stdout file: /home/user/PrIDE/performance/gem5/stats/pride_multiprogram_16GBmem_250Mn.SPEC2017.C4/RFM5.BR2.4C/blender/blender.out_0
Process stderr file: /home/user/PrIDE/performance/gem5/stats/pride_multiprogram_16GBmem_250Mn.SPEC2017.C4/RFM5.BR2.4C/blender/blender.err_0
Benchmark- 1   blender
Selected benchmark
--> blender
CMD: ['/opt/spec2017/benchspec/CPU/526.blender_r/run/run_base_refrate_gem5_se-m64.0000/blender_r_base.gem5_se-m64', '/opt/spec2017/benchspec/CPU/526.blender_r/run/run_base_refrate_gem5_se-m64.0000/sh3_no_char.blend', '--render-output', 'sh3_no_char_', '--threads', '1', '-b', '-F', 'RAWTGA', '-s', '849', '-e', '849', '-a']
CWD: /opt/spec2017/benchspec/CPU/526.blender_r/run/run_base_refrate_gem5_se-m64.0000/
Process stdout file: /home/user/PrIDE/performance/gem5/stats/pride_multiprogram_16GBmem_250Mn.SPEC2017.C4/RFM5.BR2.4C/blender/blender.out_1
Process stderr file: /home/user/PrIDE/performance/gem5/stats/pride_multiprogram_16GBmem_250Mn.SPEC2017.C4/RFM5.BR2.4C/blender/blender.err_1
Benchmark- 2   blender
Selected benchmark
--> blender
CMD: ['/opt/spec2017/benchspec/CPU/526.blender_r/run/run_base_refrate_gem5_se-m64.0000/blender_r_base.gem5_se-m64', '/opt/spec2017/benchspec/CPU/526.blender_r/run/run_base_refrate_gem5_se-m64.0000/sh3_no_char.blend', '--render-output', 'sh3_no_char_', '--threads', '1', '-b', '-F', 'RAWTGA', '-s', '849', '-e', '849', '-a']
CWD: /opt/spec2017/benchspec/CPU/526.blender_r/run/run_base_refrate_gem5_se-m64.0000/
Process stdout file: /home/user/PrIDE/performance/gem5/stats/pride_multiprogram_16GBmem_250Mn.SPEC2017.C4/RFM5.BR2.4C/blender/blender.out_2
Process stderr file: /home/user/PrIDE/performance/gem5/stats/pride_multiprogram_16GBmem_250Mn.SPEC2017.C4/RFM5.BR2.4C/blender/blender.err_2
Benchmark- 3   blender
Selected benchmark
--> blender
CMD: ['/opt/spec2017/benchspec/CPU/526.blender_r/run/run_base_refrate_gem5_se-m64.0000/blender_r_base.gem5_se-m64', '/opt/spec2017/benchspec/CPU/526.blender_r/run/run_base_refrate_gem5_se-m64.0000/sh3_no_char.blend', '--render-output', 'sh3_no_char_', '--threads', '1', '-b', '-F', 'RAWTGA', '-s', '849', '-e', '849', '-a']
CWD: /opt/spec2017/benchspec/CPU/526.blender_r/run/run_base_refrate_gem5_se-m64.0000/
Process stdout file: /home/user/PrIDE/performance/gem5/stats/pride_multiprogram_16GBmem_250Mn.SPEC2017.C4/RFM5.BR2.4C/blender/blender.out_3
Process stderr file: /home/user/PrIDE/performance/gem5/stats/pride_multiprogram_16GBmem_250Mn.SPEC2017.C4/RFM5.BR2.4C/blender/blender.err_3
Workload-0: 
['/opt/spec2017/benchspec/CPU/526.blender_r/run/run_base_refrate_gem5_se-m64.0000/blender_r_base.gem5_se-m64', '/opt/spec2017/benchspec/CPU/526.blender_r/run/run_base_refrate_gem5_se-m64.0000/sh3_no_char.blend', '--render-output', 'sh3_no_char_', '--threads', '1', '-b', '-F', 'RAWTGA', '-s', '849', '-e', '849', '-a']
Workload-1: 
['/opt/spec2017/benchspec/CPU/526.blender_r/run/run_base_refrate_gem5_se-m64.0000/blender_r_base.gem5_se-m64', '/opt/spec2017/benchspec/CPU/526.blender_r/run/run_base_refrate_gem5_se-m64.0000/sh3_no_char.blend', '--render-output', 'sh3_no_char_', '--threads', '1', '-b', '-F', 'RAWTGA', '-s', '849', '-e', '849', '-a']
Workload-2: 
['/opt/spec2017/benchspec/CPU/526.blender_r/run/run_base_refrate_gem5_se-m64.0000/blender_r_base.gem5_se-m64', '/opt/spec2017/benchspec/CPU/526.blender_r/run/run_base_refrate_gem5_se-m64.0000/sh3_no_char.blend', '--render-output', 'sh3_no_char_', '--threads', '1', '-b', '-F', 'RAWTGA', '-s', '849', '-e', '849', '-a']
Workload-3: 
['/opt/spec2017/benchspec/CPU/526.blender_r/run/run_base_refrate_gem5_se-m64.0000/blender_r_base.gem5_se-m64', '/opt/spec2017/benchspec/CPU/526.blender_r/run/run_base_refrate_gem5_se-m64.0000/sh3_no_char.blend', '--render-output', 'sh3_no_char_', '--threads', '1', '-b', '-F', 'RAWTGA', '-s', '849', '-e', '849', '-a']
defense_enable:  True  detector:  MG  mitigation:  RFM  threshold:  800
mg_entries:  1700
rfm_maxacts_per_trefi:  79 rfm_per_trefi:  5 rfm_blast_radius:  2
Switch at curTick count:10000
warn: membus.master is deprecated. `master` is now called `mem_side_ports`
warn: No dot file generated. Please install pydot to generate the dot file and pdf.
info: Entering event queue @ 18219162241026.  Starting simulation...
info: Entering event queue @ 18219162251026.  Starting simulation...
warn: PowerState: Already in the requested power state, request ignored
Switched CPUS @ tick 18219162251026
switching cpus
**** REAL SIMULATION ****
info: Entering event queue @ 18219162251682.  Starting simulation...
18222495574359: Event_285: system.switch_cpus3 progress event, total committed:5305268, progress insts committed: 5305268, IPC: 0.529996
18222495574359: Event_284: system.switch_cpus2 progress event, total committed:5250044, progress insts committed: 5250044, IPC: 0.524479
18222495574359: Event_283: system.switch_cpus1 progress event, total committed:5305559, progress insts committed: 5305559, IPC: 0.530025
18222495574359: Event_282: system.switch_cpus0 progress event, total committed:5305127, progress insts committed: 5305127, IPC: 0.529982
18225828907692: Event_282: system.switch_cpus0 progress event, total committed:10563485, progress insts committed: 5258358, IPC: 00.52531
18225828907692: Event_283: system.switch_cpus1 progress event, total committed:10563716, progress insts committed: 5258157, IPC: 00.52529
18225828907692: Event_284: system.switch_cpus2 progress event, total committed:10433144, progress insts committed: 5183100, IPC: 0.517792
18225828907692: Event_285: system.switch_cpus3 progress event, total committed:10563502, progress insts committed: 5258234, IPC: 0.525298
18229162241025: Event_285: system.switch_cpus3 progress event, total committed:15683785, progress insts committed: 5120283, IPC: 0.511516
18229162241025: Event_284: system.switch_cpus2 progress event, total committed:15480875, progress insts committed: 5047731, IPC: 0.504268
18229162241025: Event_283: system.switch_cpus1 progress event, total committed:15683870, progress insts committed: 5120154, IPC: 0.511503
18229162241025: Event_282: system.switch_cpus0 progress event, total committed:15683676, progress insts committed: 5120191, IPC: 0.511507
18232495574358: Event_282: system.switch_cpus0 progress event, total committed:20725800, progress insts committed: 5042124, IPC: 0.503708
18232495574358: Event_283: system.switch_cpus1 progress event, total committed:20725985, progress insts committed: 5042115, IPC: 0.503707
18232495574358: Event_284: system.switch_cpus2 progress event, total committed:20457761, progress insts committed: 4976886, IPC: 0.497191
18232495574358: Event_285: system.switch_cpus3 progress event, total committed:20726453, progress insts committed: 5042668, IPC: 0.503763
18235828907691: Event_285: system.switch_cpus3 progress event, total committed:25808348, progress insts committed: 5081895, IPC: 0.507681
18235828907691: Event_284: system.switch_cpus2 progress event, total committed:25465187, progress insts committed: 5007426, IPC: 0.500242
18235828907691: Event_283: system.switch_cpus1 progress event, total committed:25807763, progress insts committed: 5081778, IPC: 00.50767
18235828907691: Event_282: system.switch_cpus0 progress event, total committed:25807686, progress insts committed: 5081886, IPC: 00.50768
18239162241024: Event_282: system.switch_cpus0 progress event, total committed:30984411, progress insts committed: 5176725, IPC: 0.517155
18239162241024: Event_283: system.switch_cpus1 progress event, total committed:30984428, progress insts committed: 5176665, IPC: 0.517149
18239162241024: Event_284: system.switch_cpus2 progress event, total committed:30565919, progress insts committed: 5100732, IPC: 0.509563
18239162241024: Event_285: system.switch_cpus3 progress event, total committed:30984428, progress insts committed: 5176080, IPC: 00.51709
18242495574357: Event_285: system.switch_cpus3 progress event, total committed:36337295, progress insts committed: 5352867, IPC: 0.534751
18242495574357: Event_284: system.switch_cpus2 progress event, total committed:35829976, progress insts committed: 5264057, IPC: 0.525879
18242495574357: Event_283: system.switch_cpus1 progress event, total committed:36337288, progress insts committed: 5352860, IPC: 0.534751
18242495574357: Event_282: system.switch_cpus0 progress event, total committed:36337135, progress insts committed: 5352724, IPC: 0.534737
18245828907690: Event_282: system.switch_cpus0 progress event, total committed:41287917, progress insts committed: 4950782, IPC: 0.494583
18245828907690: Event_283: system.switch_cpus1 progress event, total committed:41300046, progress insts committed: 4962758, IPC: 00.49578
18245828907690: Event_284: system.switch_cpus2 progress event, total committed:40927945, progress insts committed: 5097969, IPC: 0.509287
18245828907690: Event_285: system.switch_cpus3 progress event, total committed:41302821, progress insts committed: 4965526, IPC: 0.496056
18249162241023: Event_285: system.switch_cpus3 progress event, total committed:43728820, progress insts committed: 2425999, IPC: 0.242357
18249162241023: Event_284: system.switch_cpus2 progress event, total committed:43358505, progress insts committed: 2430560, IPC: 0.242813
18249162241023: Event_283: system.switch_cpus1 progress event, total committed:43725681, progress insts committed: 2425635, IPC: 0.242321
18249162241023: Event_282: system.switch_cpus0 progress event, total committed:43675504, progress insts committed: 2387587, IPC: 00.23852
18252495574356: Event_282: system.switch_cpus0 progress event, total committed:46019718, progress insts committed: 2344214, IPC: 0.234187
18252495574356: Event_283: system.switch_cpus1 progress event, total committed:46052515, progress insts committed: 2326834, IPC: 0.232451
18252495574356: Event_284: system.switch_cpus2 progress event, total committed:45711075, progress insts committed: 2352570, IPC: 0.235022
18252495574356: Event_285: system.switch_cpus3 progress event, total committed:46088976, progress insts committed: 2360156, IPC: 00.23578
18255828907689: Event_285: system.switch_cpus3 progress event, total committed:48374340, progress insts committed: 2285364, IPC: 0.228308
18255828907689: Event_284: system.switch_cpus2 progress event, total committed:48011780, progress insts committed: 2300705, IPC: 00.22984
18255828907689: Event_283: system.switch_cpus1 progress event, total committed:48361030, progress insts committed: 2308515, IPC: 0.230621
18255828907689: Event_282: system.switch_cpus0 progress event, total committed:48334613, progress insts committed: 2314895, IPC: 0.231258
18259162241022: Event_282: system.switch_cpus0 progress event, total committed:50628883, progress insts committed: 2294270, IPC: 0.229198
18259162241022: Event_283: system.switch_cpus1 progress event, total committed:50728070, progress insts committed: 2367040, IPC: 0.236467
18259162241022: Event_284: system.switch_cpus2 progress event, total committed:50380630, progress insts committed: 2368850, IPC: 0.236648
18259162241022: Event_285: system.switch_cpus3 progress event, total committed:50714146, progress insts committed: 2339806, IPC: 0.233747
18262495574355: Event_285: system.switch_cpus3 progress event, total committed:53034706, progress insts committed: 2320560, IPC: 0.231824
18262495574355: Event_284: system.switch_cpus2 progress event, total committed:52715380, progress insts committed: 2334750, IPC: 0.233242
18262495574355: Event_283: system.switch_cpus1 progress event, total committed:53001545, progress insts committed: 2273475, IPC: 00.22712
18262495574355: Event_282: system.switch_cpus0 progress event, total committed:52857813, progress insts committed: 2228930, IPC: 00.22267
18265828907688: Event_282: system.switch_cpus0 progress event, total committed:55167538, progress insts committed: 2309725, IPC: 0.230742
18265828907688: Event_283: system.switch_cpus1 progress event, total committed:55283381, progress insts committed: 2281836, IPC: 0.227955
18265828907688: Event_284: system.switch_cpus2 progress event, total committed:55015315, progress insts committed: 2299935, IPC: 0.229764
18265828907688: Event_285: system.switch_cpus3 progress event, total committed:55350371, progress insts committed: 2315665, IPC: 0.231335
18269162241021: Event_285: system.switch_cpus3 progress event, total committed:57639365, progress insts committed: 2288994, IPC: 0.228671
18269162241021: Event_284: system.switch_cpus2 progress event, total committed:57288135, progress insts committed: 2272820, IPC: 0.227055
18269162241021: Event_283: system.switch_cpus1 progress event, total committed:57566820, progress insts committed: 2283439, IPC: 0.228116
18269162241021: Event_282: system.switch_cpus0 progress event, total committed:57494039, progress insts committed: 2326501, IPC: 0.232417
18272495574354: Event_282: system.switch_cpus0 progress event, total committed:59763778, progress insts committed: 2269739, IPC: 0.226747
18272495574354: Event_283: system.switch_cpus1 progress event, total committed:59817145, progress insts committed: 2250325, IPC: 0.224807
18272495574354: Event_284: system.switch_cpus2 progress event, total committed:59524600, progress insts committed: 2236465, IPC: 0.223423
18272495574354: Event_285: system.switch_cpus3 progress event, total committed:59918070, progress insts committed: 2278705, IPC: 0.227643
18275828907687: Event_285: system.switch_cpus3 progress event, total committed:62195620, progress insts committed: 2277550, IPC: 0.227527
18275828907687: Event_284: system.switch_cpus2 progress event, total committed:61801486, progress insts committed: 2276886, IPC: 0.227461
18275828907687: Event_283: system.switch_cpus1 progress event, total committed:62102996, progress insts committed: 2285851, IPC: 0.228357
18275828907687: Event_282: system.switch_cpus0 progress event, total committed:62000903, progress insts committed: 2237125, IPC: 0.223489
18279162241020: Event_282: system.switch_cpus0 progress event, total committed:64211683, progress insts committed: 2210780, IPC: 0.220857
18279162241020: Event_283: system.switch_cpus1 progress event, total committed:64353270, progress insts committed: 2250274, IPC: 0.224802
18279162241020: Event_284: system.switch_cpus2 progress event, total committed:64027395, progress insts committed: 2225909, IPC: 0.222368
18279162241020: Event_285: system.switch_cpus3 progress event, total committed:64442014, progress insts committed: 2246394, IPC: 0.224415
18282495574353: Event_285: system.switch_cpus3 progress event, total committed:66739720, progress insts committed: 2297706, IPC: 0.229541
18282495574353: Event_284: system.switch_cpus2 progress event, total committed:66342565, progress insts committed: 2315170, IPC: 0.231285
18282495574353: Event_283: system.switch_cpus1 progress event, total committed:66672814, progress insts committed: 2319544, IPC: 0.231722
18282495574353: Event_282: system.switch_cpus0 progress event, total committed:66511398, progress insts committed: 2299715, IPC: 0.229742
18285828907686: Event_282: system.switch_cpus0 progress event, total committed:68834818, progress insts committed: 2323420, IPC: 00.23211
18285828907686: Event_283: system.switch_cpus1 progress event, total committed:69004320, progress insts committed: 2331506, IPC: 0.232917
18285828907686: Event_284: system.switch_cpus2 progress event, total committed:68667301, progress insts committed: 2324736, IPC: 0.232241
18285828907686: Event_285: system.switch_cpus3 progress event, total committed:69067045, progress insts committed: 2327325, IPC: 000.2325
18289162241019: Event_285: system.switch_cpus3 progress event, total committed:71341221, progress insts committed: 2274176, IPC: 00.22719
18289162241019: Event_284: system.switch_cpus2 progress event, total committed:70960200, progress insts committed: 2292899, IPC: 0.229061
18289162241019: Event_283: system.switch_cpus1 progress event, total committed:71304995, progress insts committed: 2300675, IPC: 0.229837
18289162241019: Event_282: system.switch_cpus0 progress event, total committed:71120068, progress insts committed: 2285250, IPC: 0.228296
18292495574352: Event_282: system.switch_cpus0 progress event, total committed:73404933, progress insts committed: 2284865, IPC: 0.228258
18292495574352: Event_283: system.switch_cpus1 progress event, total committed:73592331, progress insts committed: 2287336, IPC: 0.228505
18292495574352: Event_284: system.switch_cpus2 progress event, total committed:73224106, progress insts committed: 2263906, IPC: 0.226164
18292495574352: Event_285: system.switch_cpus3 progress event, total committed:73622691, progress insts committed: 2281470, IPC: 0.227919
18295828907685: Event_285: system.switch_cpus3 progress event, total committed:75913060, progress insts committed: 2290369, IPC: 0.228808
18295828907685: Event_284: system.switch_cpus2 progress event, total committed:75481691, progress insts committed: 2257585, IPC: 0.225533
18295828907685: Event_283: system.switch_cpus1 progress event, total committed:75887811, progress insts committed: 2295480, IPC: 0.229318
18295828907685: Event_282: system.switch_cpus0 progress event, total committed:75710643, progress insts committed: 2305710, IPC: 00.23034
18299162241018: Event_282: system.switch_cpus0 progress event, total committed:77970098, progress insts committed: 2259455, IPC: 00.22572
18299162241018: Event_283: system.switch_cpus1 progress event, total committed:78242420, progress insts committed: 2354609, IPC: 0.235225
18299162241018: Event_284: system.switch_cpus2 progress event, total committed:77816280, progress insts committed: 2334589, IPC: 0.233225
18299162241018: Event_285: system.switch_cpus3 progress event, total committed:78213545, progress insts committed: 2300485, IPC: 0.229818
18302495574351: Event_285: system.switch_cpus3 progress event, total committed:83483412, progress insts committed: 5269867, IPC: 00.52646
18302495574351: Event_284: system.switch_cpus2 progress event, total committed:82748301, progress insts committed: 4932021, IPC: 0.492709
18302495574351: Event_283: system.switch_cpus1 progress event, total committed:83506461, progress insts committed: 5264041, IPC: 0.525878
18302495574351: Event_282: system.switch_cpus0 progress event, total committed:82999951, progress insts committed: 5029853, IPC: 0.502482
18305828907684: Event_282: system.switch_cpus0 progress event, total committed:88434544, progress insts committed: 5434593, IPC: 0.542916
18305828907684: Event_283: system.switch_cpus1 progress event, total committed:88969659, progress insts committed: 5463198, IPC: 0.545773
18305828907684: Event_284: system.switch_cpus2 progress event, total committed:88180551, progress insts committed: 5432250, IPC: 0.542682
18305828907684: Event_285: system.switch_cpus3 progress event, total committed:88947461, progress insts committed: 5464049, IPC: 0.545858
18309162241017: Event_285: system.switch_cpus3 progress event, total committed:94189965, progress insts committed: 5242504, IPC: 0.523726
18309162241017: Event_284: system.switch_cpus2 progress event, total committed:93414723, progress insts committed: 5234172, IPC: 0.522894
18309162241017: Event_283: system.switch_cpus1 progress event, total committed:94207572, progress insts committed: 5237913, IPC: 0.523268
18309162241017: Event_282: system.switch_cpus0 progress event, total committed:93654496, progress insts committed: 5219952, IPC: 0.521473
18312495574350: Event_282: system.switch_cpus0 progress event, total committed:98948455, progress insts committed: 5293959, IPC: 0.528867
18312495574350: Event_283: system.switch_cpus1 progress event, total committed:99532722, progress insts committed: 5325150, IPC: 0.531982
18312495574350: Event_284: system.switch_cpus2 progress event, total committed:98689817, progress insts committed: 5275094, IPC: 0.526982
18312495574350: Event_285: system.switch_cpus3 progress event, total committed:99524895, progress insts committed: 5334930, IPC: 00.53296
18315828907683: Event_285: system.switch_cpus3 progress event, total committed:104804766, progress insts committed: 5279871, IPC: 0.527459
18315828907683: Event_284: system.switch_cpus2 progress event, total committed:103965266, progress insts committed: 5275449, IPC: 0.527017
18315828907683: Event_283: system.switch_cpus1 progress event, total committed:104819849, progress insts committed: 5287127, IPC: 0.528184
18315828907683: Event_282: system.switch_cpus0 progress event, total committed:104214395, progress insts committed: 5265940, IPC: 0.526067
18319162241016: Event_282: system.switch_cpus0 progress event, total committed:109553636, progress insts committed: 5339241, IPC: 00.53339
18319162241016: Event_283: system.switch_cpus1 progress event, total committed:110197153, progress insts committed: 5377304, IPC: 0.537193
18319162241016: Event_284: system.switch_cpus2 progress event, total committed:109282097, progress insts committed: 5316831, IPC: 0.531151
18319162241016: Event_285: system.switch_cpus3 progress event, total committed:110185979, progress insts committed: 5381213, IPC: 0.537583
18322495574349: Event_285: system.switch_cpus3 progress event, total committed:115541796, progress insts committed: 5355817, IPC: 0.535046
18322495574349: Event_284: system.switch_cpus2 progress event, total committed:114588501, progress insts committed: 5306404, IPC: 00.53011
18322495574349: Event_283: system.switch_cpus1 progress event, total committed:115549903, progress insts committed: 5352750, IPC: 00.53474
18322495574349: Event_282: system.switch_cpus0 progress event, total committed:114860111, progress insts committed: 5306475, IPC: 0.530117
18325828907682: Event_282: system.switch_cpus0 progress event, total committed:120194726, progress insts committed: 5334615, IPC: 0.532928
18325828907682: Event_283: system.switch_cpus1 progress event, total committed:120307919, progress insts committed: 4758016, IPC: 0.475326
18325828907682: Event_284: system.switch_cpus2 progress event, total committed:119915056, progress insts committed: 5326555, IPC: 0.532123
18325828907682: Event_285: system.switch_cpus3 progress event, total committed:120307697, progress insts committed: 4765901, IPC: 0.476114
18329162241015: Event_285: system.switch_cpus3 progress event, total committed:120484202, progress insts committed: 176505, IPC: 0.0176328
18329162241015: Event_284: system.switch_cpus2 progress event, total committed:120447476, progress insts committed: 532420, IPC: 0.0531888
18329162241015: Event_283: system.switch_cpus1 progress event, total committed:120484727, progress insts committed: 176808, IPC: 0.0176631
18329162241015: Event_282: system.switch_cpus0 progress event, total committed:120456187, progress insts committed: 261461, IPC: 00.02612
18332495574348: Event_282: system.switch_cpus0 progress event, total committed:120604225, progress insts committed: 148038, IPC: 0.014789
18332495574348: Event_283: system.switch_cpus1 progress event, total committed:120634625, progress insts committed: 149898, IPC: 0.0149748
18332495574348: Event_284: system.switch_cpus2 progress event, total committed:120593765, progress insts committed: 146289, IPC: 0.0146143
18332495574348: Event_285: system.switch_cpus3 progress event, total committed:120634229, progress insts committed: 150027, IPC: 0.0149877
18335828907681: Event_285: system.switch_cpus3 progress event, total committed:120784706, progress insts committed: 150477, IPC: 0.0150327
18335828907681: Event_284: system.switch_cpus2 progress event, total committed:120743981, progress insts committed: 150216, IPC: 0.0150066
18335828907681: Event_283: system.switch_cpus1 progress event, total committed:120784946, progress insts committed: 150321, IPC: 0.0150171
18335828907681: Event_282: system.switch_cpus0 progress event, total committed:120754008, progress insts committed: 149783, IPC: 0.0149633
18339162241014: Event_282: system.switch_cpus0 progress event, total committed:120904449, progress insts committed: 150441, IPC: 0.0150291
18339162241014: Event_283: system.switch_cpus1 progress event, total committed:120936321, progress insts committed: 151375, IPC: 0.0151224
18339162241014: Event_284: system.switch_cpus2 progress event, total committed:120893048, progress insts committed: 149067, IPC: 0.0148918
18339162241014: Event_285: system.switch_cpus3 progress event, total committed:120935921, progress insts committed: 151215, IPC: 0.0151064
18342495574347: Event_285: system.switch_cpus3 progress event, total committed:121087439, progress insts committed: 151518, IPC: 0.0151366
18342495574347: Event_284: system.switch_cpus2 progress event, total committed:121042730, progress insts committed: 149682, IPC: 0.0149532
18342495574347: Event_283: system.switch_cpus1 progress event, total committed:121087673, progress insts committed: 151352, IPC: 0.0151201
18342495574347: Event_282: system.switch_cpus0 progress event, total committed:121053003, progress insts committed: 148554, IPC: 0.0148405
18345828907680: Event_282: system.switch_cpus0 progress event, total committed:121200399, progress insts committed: 147396, IPC: 0.0147249
18345828907680: Event_283: system.switch_cpus1 progress event, total committed:121235888, progress insts committed: 148215, IPC: 0.0148067
18345828907680: Event_284: system.switch_cpus2 progress event, total committed:121190240, progress insts committed: 147510, IPC: 0.0147362
18345828907680: Event_285: system.switch_cpus3 progress event, total committed:121235717, progress insts committed: 148278, IPC: 0.014813
18349162241013: Event_285: system.switch_cpus3 progress event, total committed:121388943, progress insts committed: 153226, IPC: 0.0153073
18349162241013: Event_284: system.switch_cpus2 progress event, total committed:121337235, progress insts committed: 146995, IPC: 0.0146848
18349162241013: Event_283: system.switch_cpus1 progress event, total committed:121389252, progress insts committed: 153364, IPC: 0.0153211
18349162241013: Event_282: system.switch_cpus0 progress event, total committed:121347889, progress insts committed: 147490, IPC: 0.0147343
18352495574346: Event_282: system.switch_cpus0 progress event, total committed:121509061, progress insts committed: 161172, IPC: 0.0161011
18352495574346: Event_283: system.switch_cpus1 progress event, total committed:121555113, progress insts committed: 165861, IPC: 0.0165695
18352495574346: Event_284: system.switch_cpus2 progress event, total committed:121496460, progress insts committed: 159225, IPC: 0.0159066
18352495574346: Event_285: system.switch_cpus3 progress event, total committed:121555113, progress insts committed: 166170, IPC: 0.0166004
18355828907679: Event_285: system.switch_cpus3 progress event, total committed:121715853, progress insts committed: 160740, IPC: 0.0160579
18355828907679: Event_284: system.switch_cpus2 progress event, total committed:121656306, progress insts committed: 159846, IPC: 0.0159686
18355828907679: Event_283: system.switch_cpus1 progress event, total committed:121715961, progress insts committed: 160848, IPC: 0.0160687
18355828907679: Event_282: system.switch_cpus0 progress event, total committed:121668307, progress insts committed: 159246, IPC: 0.0159087
18359162241012: Event_282: system.switch_cpus0 progress event, total committed:121827754, progress insts committed: 159447, IPC: 0.0159288
18359162241012: Event_283: system.switch_cpus1 progress event, total committed:121878279, progress insts committed: 162318, IPC: 0.0162156
18359162241012: Event_284: system.switch_cpus2 progress event, total committed:121815681, progress insts committed: 159375, IPC: 0.0159216
18359162241012: Event_285: system.switch_cpus3 progress event, total committed:121878132, progress insts committed: 162279, IPC: 0.0162117
18362495574345: Event_285: system.switch_cpus3 progress event, total committed:122042541, progress insts committed: 164409, IPC: 0.0164245
18362495574345: Event_284: system.switch_cpus2 progress event, total committed:121977654, progress insts committed: 161973, IPC: 0.0161811
18362495574345: Event_283: system.switch_cpus1 progress event, total committed:122042664, progress insts committed: 164385, IPC: 0.0164221
18362495574345: Event_282: system.switch_cpus0 progress event, total committed:121988782, progress insts committed: 161028, IPC: 0.0160867
18365828907678: Event_282: system.switch_cpus0 progress event, total committed:122149069, progress insts committed: 160287, IPC: 0.0160127
18365828907678: Event_283: system.switch_cpus1 progress event, total committed:122204613, progress insts committed: 161949, IPC: 0.0161787
18365828907678: Event_284: system.switch_cpus2 progress event, total committed:122137701, progress insts committed: 160047, IPC: 0.0159887
18365828907678: Event_285: system.switch_cpus3 progress event, total committed:122204559, progress insts committed: 162018, IPC: 0.0161856
18369162241011: Event_285: system.switch_cpus3 progress event, total committed:122366118, progress insts committed: 161559, IPC: 0.0161397
18369162241011: Event_284: system.switch_cpus2 progress event, total committed:122295657, progress insts committed: 157956, IPC: 0.0157798
18369162241011: Event_283: system.switch_cpus1 progress event, total committed:122366253, progress insts committed: 161640, IPC: 0.0161478
18369162241011: Event_282: system.switch_cpus0 progress event, total committed:122306386, progress insts committed: 157317, IPC: 0.015716
18372495574344: Event_282: system.switch_cpus0 progress event, total committed:122466403, progress insts committed: 160017, IPC: 0.0159857
18372495574344: Event_283: system.switch_cpus1 progress event, total committed:122528226, progress insts committed: 161973, IPC: 0.0161811
18372495574344: Event_284: system.switch_cpus2 progress event, total committed:122455479, progress insts committed: 159822, IPC: 0.0159662
18372495574344: Event_285: system.switch_cpus3 progress event, total committed:122528157, progress insts committed: 162039, IPC: 0.0161877
18375828907677: Event_285: system.switch_cpus3 progress event, total committed:122691279, progress insts committed: 163122, IPC: 0.0162959
18375828907677: Event_284: system.switch_cpus2 progress event, total committed:122614848, progress insts committed: 159369, IPC: 0.015921
18375828907677: Event_283: system.switch_cpus1 progress event, total committed:122691279, progress insts committed: 163053, IPC: 0.016289
18375828907677: Event_282: system.switch_cpus0 progress event, total committed:122627491, progress insts committed: 161088, IPC: 0.0160927
18379162241010: Event_282: system.switch_cpus0 progress event, total committed:122789350, progress insts committed: 161859, IPC: 0.0161697
18379162241010: Event_283: system.switch_cpus1 progress event, total committed:122854527, progress insts committed: 163248, IPC: 0.0163085
18379162241010: Event_284: system.switch_cpus2 progress event, total committed:122777307, progress insts committed: 162459, IPC: 0.0162297
18379162241010: Event_285: system.switch_cpus3 progress event, total committed:122854449, progress insts committed: 163170, IPC: 0.0163007
18382495574343: Event_285: system.switch_cpus3 progress event, total committed:123017973, progress insts committed: 163524, IPC: 0.016336
18382495574343: Event_284: system.switch_cpus2 progress event, total committed:122938803, progress insts committed: 161496, IPC: 0.0161335
18382495574343: Event_283: system.switch_cpus1 progress event, total committed:123018339, progress insts committed: 163812, IPC: 0.0163648
18382495574343: Event_282: system.switch_cpus0 progress event, total committed:122949190, progress insts committed: 159840, IPC: 0.015968
18385828907676: Event_282: system.switch_cpus0 progress event, total committed:123111235, progress insts committed: 162045, IPC: 0.0161883
18385828907676: Event_283: system.switch_cpus1 progress event, total committed:123182850, progress insts committed: 164511, IPC: 0.0164346
18385828907676: Event_284: system.switch_cpus2 progress event, total committed:123099117, progress insts committed: 160314, IPC: 0.0160154
18385828907676: Event_285: system.switch_cpus3 progress event, total committed:123182418, progress insts committed: 164445, IPC: 0.0164281
18389162241009: Event_285: system.switch_cpus3 progress event, total committed:123569837, progress insts committed: 387419, IPC: 0.0387032
18389162241009: Event_284: system.switch_cpus2 progress event, total committed:123242007, progress insts committed: 142890, IPC: 0.0142747
18389162241009: Event_283: system.switch_cpus1 progress event, total committed:123574622, progress insts committed: 391772, IPC: 0.039138
18389162241009: Event_282: system.switch_cpus0 progress event, total committed:123253564, progress insts committed: 142329, IPC: 0.0142187
18392495574342: Event_282: system.switch_cpus0 progress event, total committed:123801045, progress insts committed: 547481, IPC: 0.0546934
18392495574342: Event_283: system.switch_cpus1 progress event, total committed:125026337, progress insts committed: 1451715, IPC: 0.145026
18392495574342: Event_284: system.switch_cpus2 progress event, total committed:123609302, progress insts committed: 367295, IPC: 0.0366928
18392495574342: Event_285: system.switch_cpus3 progress event, total committed:125023022, progress insts committed: 1453185, IPC: 0.145173
18395828907675: Event_285: system.switch_cpus3 progress event, total committed:126235022, progress insts committed: 1212000, IPC: 0.121079
18395828907675: Event_284: system.switch_cpus2 progress event, total committed:124853117, progress insts committed: 1243815, IPC: 0.124257
18395828907675: Event_283: system.switch_cpus1 progress event, total committed:126239102, progress insts committed: 1212765, IPC: 0.121155
18395828907675: Event_282: system.switch_cpus0 progress event, total committed:125047004, progress insts committed: 1245959, IPC: 0.124471
18399162241008: Event_282: system.switch_cpus0 progress event, total committed:126259005, progress insts committed: 1212001, IPC: 0.121079
18399162241008: Event_283: system.switch_cpus1 progress event, total committed:127491781, progress insts committed: 1252679, IPC: 0.125143
18399162241008: Event_284: system.switch_cpus2 progress event, total committed:126067697, progress insts committed: 1214580, IPC: 0.121337
18399162241008: Event_285: system.switch_cpus3 progress event, total committed:127488317, progress insts committed: 1253295, IPC: 0.125204
18402495574341: Event_285: system.switch_cpus3 progress event, total committed:128743172, progress insts committed: 1254855, IPC: 00.12536
18402495574341: Event_284: system.switch_cpus2 progress event, total committed:127318517, progress insts committed: 1250820, IPC: 0.124957
18402495574341: Event_283: system.switch_cpus1 progress event, total committed:128746382, progress insts committed: 1254601, IPC: 0.125335
18402495574341: Event_282: system.switch_cpus0 progress event, total committed:127513725, progress insts committed: 1254720, IPC: 0.125347
18405828907674: Event_282: system.switch_cpus0 progress event, total committed:128768640, progress insts committed: 1254915, IPC: 0.125366
18405828907674: Event_283: system.switch_cpus1 progress event, total committed:130001462, progress insts committed: 1255080, IPC: 0.125382
18405828907674: Event_284: system.switch_cpus2 progress event, total committed:128574302, progress insts committed: 1255785, IPC: 0.125453
18405828907674: Event_285: system.switch_cpus3 progress event, total committed:129997997, progress insts committed: 1254825, IPC: 0.125357
18409162241007: Event_285: system.switch_cpus3 progress event, total committed:131204582, progress insts committed: 1206585, IPC: 0.120538
18409162241007: Event_284: system.switch_cpus2 progress event, total committed:129814877, progress insts committed: 1240575, IPC: 0.123933
18409162241007: Event_283: system.switch_cpus1 progress event, total committed:131208272, progress insts committed: 1206810, IPC: 00.12056
18409162241007: Event_282: system.switch_cpus0 progress event, total committed:130009410, progress insts committed: 1240770, IPC: 0.123953
18412495574340: Event_282: system.switch_cpus0 progress event, total committed:131238525, progress insts committed: 1229115, IPC: 0.122789
18412495574340: Event_283: system.switch_cpus1 progress event, total committed:132446672, progress insts committed: 1238400, IPC: 0.123716
18412495574340: Event_284: system.switch_cpus2 progress event, total committed:131052182, progress insts committed: 1237305, IPC: 0.123607
18412495574340: Event_285: system.switch_cpus3 progress event, total committed:132443582, progress insts committed: 1239000, IPC: 0.123776
warn: MOVNTDQ: Ignoring non-temporal hint, modeling as cacheable!
18415828907673: Event_285: system.switch_cpus3 progress event, total committed:133695207, progress insts committed: 1251625, IPC: 0.125037
18415828907673: Event_284: system.switch_cpus2 progress event, total committed:132307247, progress insts committed: 1255065, IPC: 0.125381
18415828907673: Event_283: system.switch_cpus1 progress event, total committed:133696065, progress insts committed: 1249393, IPC: 0.124814
18415828907673: Event_282: system.switch_cpus0 progress event, total committed:132500220, progress insts committed: 1261695, IPC: 0.126043
18419162241006: Event_282: system.switch_cpus0 progress event, total committed:133933228, progress insts committed: 1433008, IPC: 0.143157
18419162241006: Event_283: system.switch_cpus1 progress event, total committed:134190207, progress insts committed: 494142, IPC: 0.0493648
18419162241006: Event_284: system.switch_cpus2 progress event, total committed:133895319, progress insts committed: 1588072, IPC: 0.158648
18419162241006: Event_285: system.switch_cpus3 progress event, total committed:134189085, progress insts committed: 493878, IPC: 0.0493384
18422495574339: Event_285: system.switch_cpus3 progress event, total committed:134765199, progress insts committed: 576114, IPC: 0.0575538
18422495574339: Event_284: system.switch_cpus2 progress event, total committed:134472753, progress insts committed: 577434, IPC: 0.0576857
18422495574339: Event_283: system.switch_cpus1 progress event, total committed:134766321, progress insts committed: 576114, IPC: 0.0575538
18422495574339: Event_282: system.switch_cpus0 progress event, total committed:134510587, progress insts committed: 577359, IPC: 0.0576782
18425828907672: Event_282: system.switch_cpus0 progress event, total committed:135060664, progress insts committed: 550077, IPC: 0.0549527
18425828907672: Event_283: system.switch_cpus1 progress event, total committed:135316365, progress insts committed: 550044, IPC: 0.0549494
18425828907672: Event_284: system.switch_cpus2 progress event, total committed:135022830, progress insts committed: 550077, IPC: 0.0549527
18425828907672: Event_285: system.switch_cpus3 progress event, total committed:135315243, progress insts committed: 550044, IPC: 0.0549494
18429162241005: Event_285: system.switch_cpus3 progress event, total committed:136628765, progress insts committed: 1313522, IPC: 0.131221
18429162241005: Event_284: system.switch_cpus2 progress event, total committed:135466449, progress insts committed: 443619, IPC: 0.0443175
18429162241005: Event_283: system.switch_cpus1 progress event, total committed:136635620, progress insts committed: 1319255, IPC: 0.131794
18429162241005: Event_282: system.switch_cpus0 progress event, total committed:135504250, progress insts committed: 443586, IPC: 0.0443142
18432495574338: Event_282: system.switch_cpus0 progress event, total committed:136680498, progress insts committed: 1176248, IPC: 0.117507
18432495574338: Event_283: system.switch_cpus1 progress event, total committed:137916380, progress insts committed: 1280760, IPC: 0.127948
18432495574338: Event_284: system.switch_cpus2 progress event, total committed:136502435, progress insts committed: 1035986, IPC: 0.103495
18432495574338: Event_285: system.switch_cpus3 progress event, total committed:137908715, progress insts committed: 1279950, IPC: 0.127867
18435828907671: Event_285: system.switch_cpus3 progress event, total committed:139065437, progress insts committed: 1156722, IPC: 0.115557
18435828907671: Event_284: system.switch_cpus2 progress event, total committed:137693420, progress insts committed: 1190985, IPC: 0.118979
18435828907671: Event_283: system.switch_cpus1 progress event, total committed:139071650, progress insts committed: 1155270, IPC: 0.115411
18435828907671: Event_282: system.switch_cpus0 progress event, total committed:137860593, progress insts committed: 1180095, IPC: 0.117891
18439162241004: Event_282: system.switch_cpus0 progress event, total committed:138970203, progress insts committed: 1109610, IPC: 00.11085
18439162241004: Event_283: system.switch_cpus1 progress event, total committed:140154500, progress insts committed: 1082850, IPC: 0.108177
18439162241004: Event_284: system.switch_cpus2 progress event, total committed:138797570, progress insts committed: 1104150, IPC: 0.110305
18439162241004: Event_285: system.switch_cpus3 progress event, total committed:140149220, progress insts committed: 1083783, IPC: 00.10827
18442495574337: Event_285: system.switch_cpus3 progress event, total committed:141250370, progress insts committed: 1101150, IPC: 0.110005
18442495574337: Event_284: system.switch_cpus2 progress event, total committed:139902740, progress insts committed: 1105170, IPC: 0.110406
18442495574337: Event_283: system.switch_cpus1 progress event, total committed:141254675, progress insts committed: 1100175, IPC: 0.109907
18442495574337: Event_282: system.switch_cpus0 progress event, total committed:140071202, progress insts committed: 1100999, IPC: 00.10999
18445828907670: Event_282: system.switch_cpus0 progress event, total committed:141203553, progress insts committed: 1132351, IPC: 0.113122
18445828907670: Event_283: system.switch_cpus1 progress event, total committed:142436120, progress insts committed: 1181445, IPC: 0.118026
18445828907670: Event_284: system.switch_cpus2 progress event, total committed:141029795, progress insts committed: 1127055, IPC: 0.112593
18445828907670: Event_285: system.switch_cpus3 progress event, total committed:142430870, progress insts committed: 1180500, IPC: 0.117932
18449162241003: Event_285: system.switch_cpus3 progress event, total committed:143640215, progress insts committed: 1209345, IPC: 0.120814
18449162241003: Event_284: system.switch_cpus2 progress event, total committed:142222580, progress insts committed: 1192785, IPC: 0.119159
18449162241003: Event_283: system.switch_cpus1 progress event, total committed:143645330, progress insts committed: 1209210, IPC: 000.1208
18449162241003: Event_282: system.switch_cpus0 progress event, total committed:142402923, progress insts committed: 1199370, IPC: 0.119817
18452495574336: Event_282: system.switch_cpus0 progress event, total committed:143605323, progress insts committed: 1202400, IPC: 00.12012
18452495574336: Event_283: system.switch_cpus1 progress event, total committed:144843140, progress insts committed: 1197810, IPC: 0.119661
18452495574336: Event_284: system.switch_cpus2 progress event, total committed:143427545, progress insts committed: 1204965, IPC: 0.120376
18452495574336: Event_285: system.switch_cpus3 progress event, total committed:144838595, progress insts committed: 1198380, IPC: 0.119718
18455828907669: Event_285: system.switch_cpus3 progress event, total committed:145973586, progress insts committed: 1134991, IPC: 0.113386
18455828907669: Event_284: system.switch_cpus2 progress event, total committed:144764105, progress insts committed: 1336560, IPC: 0.133522
18455828907669: Event_283: system.switch_cpus1 progress event, total committed:145974741, progress insts committed: 1131601, IPC: 0.113047
18455828907669: Event_282: system.switch_cpus0 progress event, total committed:144944643, progress insts committed: 1339320, IPC: 0.133798
18459162241002: Event_282: system.switch_cpus0 progress event, total committed:146233939, progress insts committed: 1289296, IPC: 0.128801
18459162241002: Event_283: system.switch_cpus1 progress event, total committed:146486235, progress insts committed: 511494, IPC: 0.0510983
18459162241002: Event_284: system.switch_cpus2 progress event, total committed:146199438, progress insts committed: 1435333, IPC: 00.14339
18459162241002: Event_285: system.switch_cpus3 progress event, total committed:146485086, progress insts committed: 511500, IPC: 0.0510989
18462495574335: Event_285: system.switch_cpus3 progress event, total committed:146990514, progress insts committed: 505428, IPC: 0.0504923
18462495574335: Event_284: system.switch_cpus2 progress event, total committed:146704866, progress insts committed: 505428, IPC: 0.0504923
18462495574335: Event_283: system.switch_cpus1 progress event, total committed:146991636, progress insts committed: 505401, IPC: 0.0504896
18462495574335: Event_282: system.switch_cpus0 progress event, total committed:146739334, progress insts committed: 505395, IPC: 0.050489
18465828907668: Event_282: system.switch_cpus0 progress event, total committed:147244564, progress insts committed: 505230, IPC: 0.0504725
18465828907668: Event_283: system.switch_cpus1 progress event, total committed:147496866, progress insts committed: 505230, IPC: 0.0504725
18465828907668: Event_284: system.switch_cpus2 progress event, total committed:147210096, progress insts committed: 505230, IPC: 0.0504725
18465828907668: Event_285: system.switch_cpus3 progress event, total committed:147495711, progress insts committed: 505197, IPC: 0.0504692
18469162241001: Event_285: system.switch_cpus3 progress event, total committed:148858844, progress insts committed: 1363133, IPC: 0.136177
18469162241001: Event_284: system.switch_cpus2 progress event, total committed:147674868, progress insts committed: 464772, IPC: 0.0464307
18469162241001: Event_283: system.switch_cpus1 progress event, total committed:148865119, progress insts committed: 1368253, IPC: 0.136688
18469162241001: Event_282: system.switch_cpus0 progress event, total committed:147709369, progress insts committed: 464805, IPC: 0.046434
18472495574334: Event_282: system.switch_cpus0 progress event, total committed:149392342, progress insts committed: 1682973, IPC: 0.168129
18472495574334: Event_283: system.switch_cpus1 progress event, total committed:150812961, progress insts committed: 1947842, IPC: 0.194589
18472495574334: Event_284: system.switch_cpus2 progress event, total committed:149208399, progress insts committed: 1533531, IPC: 000.1532
18472495574334: Event_285: system.switch_cpus3 progress event, total committed:150806749, progress insts committed: 1947905, IPC: 0.194596
18475828907667: Event_285: system.switch_cpus3 progress event, total committed:152543748, progress insts committed: 1736999, IPC: 0.173526
18475828907667: Event_284: system.switch_cpus2 progress event, total committed:151024269, progress insts committed: 1815870, IPC: 0.181405
18475828907667: Event_283: system.switch_cpus1 progress event, total committed:152549148, progress insts committed: 1736187, IPC: 0.173445
18475828907667: Event_282: system.switch_cpus0 progress event, total committed:151208142, progress insts committed: 1815800, IPC: 0.181398
18479162241000: Event_282: system.switch_cpus0 progress event, total committed:152613391, progress insts committed: 1405249, IPC: 0.140384
18479162241000: Event_283: system.switch_cpus1 progress event, total committed:153835567, progress insts committed: 1286419, IPC: 0.128513
18479162241000: Event_284: system.switch_cpus2 progress event, total committed:152455128, progress insts committed: 1430859, IPC: 0.142943
18479162241000: Event_285: system.switch_cpus3 progress event, total committed:153829968, progress insts committed: 1286220, IPC: 0.128493
18482495574333: Event_285: system.switch_cpus3 progress event, total committed:155006823, progress insts committed: 1176855, IPC: 0.117568
18482495574333: Event_284: system.switch_cpus2 progress event, total committed:153632268, progress insts committed: 1177140, IPC: 0.117596
18482495574333: Event_283: system.switch_cpus1 progress event, total committed:155012568, progress insts committed: 1177001, IPC: 0.117582
18482495574333: Event_282: system.switch_cpus0 progress event, total committed:153790231, progress insts committed: 1176840, IPC: 0.117566
18485828907666: Event_282: system.switch_cpus0 progress event, total committed:154997011, progress insts committed: 1206780, IPC: 0.120557
18485828907666: Event_283: system.switch_cpus1 progress event, total committed:156219408, progress insts committed: 1206840, IPC: 0.120563
18485828907666: Event_284: system.switch_cpus2 progress event, total committed:154838943, progress insts committed: 1206675, IPC: 0.120547
18485828907666: Event_285: system.switch_cpus3 progress event, total committed:156213768, progress insts committed: 1206945, IPC: 0.120574
18489162240999: Event_285: system.switch_cpus3 progress event, total committed:157434498, progress insts committed: 1220730, IPC: 0.121951
18489162240999: Event_284: system.switch_cpus2 progress event, total committed:156059103, progress insts committed: 1220160, IPC: 0.121894
18489162240999: Event_283: system.switch_cpus1 progress event, total committed:157439808, progress insts committed: 1220400, IPC: 0.121918
18489162240999: Event_282: system.switch_cpus0 progress event, total committed:156217351, progress insts committed: 1220340, IPC: 0.121912
18492495574332: Event_282: system.switch_cpus0 progress event, total committed:157448911, progress insts committed: 1231560, IPC: 0.123033
18492495574332: Event_283: system.switch_cpus1 progress event, total committed:158671488, progress insts committed: 1231680, IPC: 0.123045
18492495574332: Event_284: system.switch_cpus2 progress event, total committed:157290768, progress insts committed: 1231665, IPC: 0.123043
18492495574332: Event_285: system.switch_cpus3 progress event, total committed:158666148, progress insts committed: 1231650, IPC: 0.123042
18495828907665: Event_285: system.switch_cpus3 progress event, total committed:159199582, progress insts committed: 533434, IPC: 0.0532901
18495828907665: Event_284: system.switch_cpus2 progress event, total committed:158926342, progress insts committed: 1635574, IPC: 0.163394
18495828907665: Event_283: system.switch_cpus1 progress event, total committed:159200704, progress insts committed: 529216, IPC: 0.0528687
18495828907665: Event_282: system.switch_cpus0 progress event, total committed:158955992, progress insts committed: 1507081, IPC: 0.150557
18499162240998: Event_282: system.switch_cpus0 progress event, total committed:159577712, progress insts committed: 621720, IPC: 0.0621098
18499162240998: Event_283: system.switch_cpus1 progress event, total committed:159822424, progress insts committed: 621720, IPC: 0.0621098
18499162240998: Event_284: system.switch_cpus2 progress event, total committed:159548095, progress insts committed: 621753, IPC: 0.0621131
18499162240998: Event_285: system.switch_cpus3 progress event, total committed:159821302, progress insts committed: 621720, IPC: 0.0621098
18502495574331: Event_285: system.switch_cpus3 progress event, total committed:160441831, progress insts committed: 620529, IPC: 0.0619908
18502495574331: Event_284: system.switch_cpus2 progress event, total committed:160168597, progress insts committed: 620502, IPC: 0.0619881
18502495574331: Event_283: system.switch_cpus1 progress event, total committed:160442926, progress insts committed: 620502, IPC: 0.0619881
18502495574331: Event_282: system.switch_cpus0 progress event, total committed:160198241, progress insts committed: 620529, IPC: 0.0619908
18505828907664: Event_282: system.switch_cpus0 progress event, total committed:161171758, progress insts committed: 973517, IPC: 0.0972543
18505828907664: Event_283: system.switch_cpus1 progress event, total committed:162372700, progress insts committed: 1929774, IPC: 0.192784
18505828907664: Event_284: system.switch_cpus2 progress event, total committed:161027785, progress insts committed: 859188, IPC: 0.0858329
18505828907664: Event_285: system.switch_cpus3 progress event, total committed:162372590, progress insts committed: 1930759, IPC: 0.192883
18509162240997: Event_285: system.switch_cpus3 progress event, total committed:164654650, progress insts committed: 2282060, IPC: 0.227978
18509162240997: Event_284: system.switch_cpus2 progress event, total committed:163293950, progress insts committed: 2266165, IPC: 00.22639
18509162240997: Event_283: system.switch_cpus1 progress event, total committed:164658060, progress insts committed: 2285360, IPC: 0.228307
18509162240997: Event_282: system.switch_cpus0 progress event, total committed:163445018, progress insts committed: 2273260, IPC: 0.227099
18512495574330: Event_282: system.switch_cpus0 progress event, total committed:165742034, progress insts committed: 2297016, IPC: 0.229472
18512495574330: Event_283: system.switch_cpus1 progress event, total committed:166947930, progress insts committed: 2289870, IPC: 0.228758
18512495574330: Event_284: system.switch_cpus2 progress event, total committed:165561160, progress insts committed: 2267210, IPC: 0.226494
18512495574330: Event_285: system.switch_cpus3 progress event, total committed:166943640, progress insts committed: 2288990, IPC: 00.22867
18515828907663: Event_285: system.switch_cpus3 progress event, total committed:169239340, progress insts committed: 2295700, IPC: 00.22934
18515828907663: Event_284: system.switch_cpus2 progress event, total committed:167849050, progress insts committed: 2287890, IPC: 00.22856
18515828907663: Event_283: system.switch_cpus1 progress event, total committed:169236425, progress insts committed: 2288495, IPC: 0.228621
18515828907663: Event_282: system.switch_cpus0 progress event, total committed:168016779, progress insts committed: 2274745, IPC: 0.227247
18519162240996: Event_282: system.switch_cpus0 progress event, total committed:170298179, progress insts committed: 2281400, IPC: 0.227912
18519162240996: Event_283: system.switch_cpus1 progress event, total committed:171526845, progress insts committed: 2290420, IPC: 0.228813
18519162240996: Event_284: system.switch_cpus2 progress event, total committed:170143100, progress insts committed: 2294050, IPC: 0.229176
18519162240996: Event_285: system.switch_cpus3 progress event, total committed:171514745, progress insts committed: 2275405, IPC: 0.227313
18522495574329: Event_285: system.switch_cpus3 progress event, total committed:173816244, progress insts committed: 2301499, IPC: 00.22992
18522495574329: Event_284: system.switch_cpus2 progress event, total committed:172436490, progress insts committed: 2293390, IPC: 00.22911
18522495574329: Event_283: system.switch_cpus1 progress event, total committed:173842564, progress insts committed: 2315719, IPC: 00.23134
18522495574329: Event_282: system.switch_cpus0 progress event, total committed:172588988, progress insts committed: 2290809, IPC: 0.228852
18525828907662: Event_282: system.switch_cpus0 progress event, total committed:177205923, progress insts committed: 4616935, IPC: 0.461232
18525828907662: Event_283: system.switch_cpus1 progress event, total committed:179320740, progress insts committed: 5478176, IPC: 00.54727
18525828907662: Event_284: system.switch_cpus2 progress event, total committed:176918628, progress insts committed: 4482138, IPC: 0.447766
18525828907662: Event_285: system.switch_cpus3 progress event, total committed:179283246, progress insts committed: 5467002, IPC: 0.546154
18529162240995: Event_285: system.switch_cpus3 progress event, total committed:184448342, progress insts committed: 5165096, IPC: 0.515993
18529162240995: Event_284: system.switch_cpus2 progress event, total committed:182094869, progress insts committed: 5176241, IPC: 0.517106
18529162240995: Event_283: system.switch_cpus1 progress event, total committed:184497684, progress insts committed: 5176944, IPC: 0.517177
18529162240995: Event_282: system.switch_cpus0 progress event, total committed:182391124, progress insts committed: 5185201, IPC: 0.518002
18532495574328: Event_282: system.switch_cpus0 progress event, total committed:187787355, progress insts committed: 5396231, IPC: 0.539083
18532495574328: Event_283: system.switch_cpus1 progress event, total committed:189902570, progress insts committed: 5404886, IPC: 0.539948
18532495574328: Event_284: system.switch_cpus2 progress event, total committed:187483297, progress insts committed: 5388428, IPC: 0.538304
18532495574328: Event_285: system.switch_cpus3 progress event, total committed:189873996, progress insts committed: 5425654, IPC: 0.542023
18535828907661: Event_285: system.switch_cpus3 progress event, total committed:195025631, progress insts committed: 5151635, IPC: 0.514648
18535828907661: Event_284: system.switch_cpus2 progress event, total committed:192940475, progress insts committed: 5457178, IPC: 0.545172
18535828907661: Event_283: system.switch_cpus1 progress event, total committed:195041856, progress insts committed: 5139286, IPC: 0.513415
18535828907661: Event_282: system.switch_cpus0 progress event, total committed:193242455, progress insts committed: 5455100, IPC: 0.544964
18539162240994: Event_282: system.switch_cpus0 progress event, total committed:196268174, progress insts committed: 3025719, IPC: 0.302269
18539162240994: Event_283: system.switch_cpus1 progress event, total committed:197501951, progress insts committed: 2460095, IPC: 0.245763
18539162240994: Event_284: system.switch_cpus2 progress event, total committed:196076237, progress insts committed: 3135762, IPC: 0.313263
18539162240994: Event_285: system.switch_cpus3 progress event, total committed:197481051, progress insts committed: 2455420, IPC: 0.245296
18542495574327: Event_285: system.switch_cpus3 progress event, total committed:199683691, progress insts committed: 2202640, IPC: 0.220044
18542495574327: Event_284: system.switch_cpus2 progress event, total committed:198275581, progress insts committed: 2199344, IPC: 0.219714
18542495574327: Event_283: system.switch_cpus1 progress event, total committed:199713772, progress insts committed: 2211821, IPC: 0.220961
18542495574327: Event_282: system.switch_cpus0 progress event, total committed:198501093, progress insts committed: 2232919, IPC: 0.223069
18545828907660: Event_282: system.switch_cpus0 progress event, total committed:200665919, progress insts committed: 2164826, IPC: 0.216266
18545828907660: Event_283: system.switch_cpus1 progress event, total committed:201855036, progress insts committed: 2141264, IPC: 0.213912
18545828907660: Event_284: system.switch_cpus2 progress event, total committed:200414197, progress insts committed: 2138616, IPC: 0.213648
18545828907660: Event_285: system.switch_cpus3 progress event, total committed:201838498, progress insts committed: 2154807, IPC: 0.215265
18549162240993: Event_285: system.switch_cpus3 progress event, total committed:203979369, progress insts committed: 2140871, IPC: 0.213873
18549162240993: Event_284: system.switch_cpus2 progress event, total committed:202556011, progress insts committed: 2141814, IPC: 0.213967
18549162240993: Event_283: system.switch_cpus1 progress event, total committed:203993652, progress insts committed: 2138616, IPC: 0.213648
18549162240993: Event_282: system.switch_cpus0 progress event, total committed:202791834, progress insts committed: 2125915, IPC: 0.212379
18552495574326: Event_282: system.switch_cpus0 progress event, total committed:204990598, progress insts committed: 2198764, IPC: 0.219657
18552495574326: Event_283: system.switch_cpus1 progress event, total committed:206183033, progress insts committed: 2189381, IPC: 0.218719
18552495574326: Event_284: system.switch_cpus2 progress event, total committed:204759615, progress insts committed: 2203604, IPC: 00.22014
18552495574326: Event_285: system.switch_cpus3 progress event, total committed:206197997, progress insts committed: 2218628, IPC: 0.221641
18555828907659: Event_285: system.switch_cpus3 progress event, total committed:210067976, progress insts committed: 3869979, IPC: 0.386611
18555828907659: Event_284: system.switch_cpus2 progress event, total committed:207076846, progress insts committed: 2317231, IPC: 0.231491
18555828907659: Event_283: system.switch_cpus1 progress event, total committed:210083250, progress insts committed: 3900217, IPC: 0.389632
18555828907659: Event_282: system.switch_cpus0 progress event, total committed:207305016, progress insts committed: 2314418, IPC: 00.23121
18559162240992: Event_282: system.switch_cpus0 progress event, total committed:212540878, progress insts committed: 5235862, IPC: 0.523063
18559162240992: Event_283: system.switch_cpus1 progress event, total committed:214598216, progress insts committed: 4514966, IPC: 0.451045
18559162240992: Event_284: system.switch_cpus2 progress event, total committed:212109050, progress insts committed: 5032204, IPC: 0.502717
18559162240992: Event_285: system.switch_cpus3 progress event, total committed:214572717, progress insts committed: 4504741, IPC: 0.450024
18562495574325: Event_285: system.switch_cpus3 progress event, total committed:219634626, progress insts committed: 5061909, IPC: 0.505685
18562495574325: Event_284: system.switch_cpus2 progress event, total committed:217174071, progress insts committed: 5065021, IPC: 0.505996
18562495574325: Event_283: system.switch_cpus1 progress event, total committed:219673691, progress insts committed: 5075475, IPC: 00.50704
18562495574325: Event_282: system.switch_cpus0 progress event, total committed:217616253, progress insts committed: 5075375, IPC: 00.50703
18565828907658: Event_282: system.switch_cpus0 progress event, total committed:222581343, progress insts committed: 4965090, IPC: 0.496012
18565828907658: Event_283: system.switch_cpus1 progress event, total committed:224459974, progress insts committed: 4786283, IPC: 00.47815
18565828907658: Event_284: system.switch_cpus2 progress event, total committed:222113601, progress insts committed: 4939530, IPC: 0.493459
18565828907658: Event_285: system.switch_cpus3 progress event, total committed:224412839, progress insts committed: 4778213, IPC: 0.477343
18569162240991: Event_285: system.switch_cpus3 progress event, total committed:226958206, progress insts committed: 2545367, IPC: 0.254282
18569162240991: Event_284: system.switch_cpus2 progress event, total committed:225397647, progress insts committed: 3284046, IPC: 0.328076
18569162240991: Event_283: system.switch_cpus1 progress event, total committed:227032266, progress insts committed: 2572292, IPC: 0.256972
18569162240991: Event_282: system.switch_cpus0 progress event, total committed:225682193, progress insts committed: 3100850, IPC: 0.309775
18572495574324: Event_282: system.switch_cpus0 progress event, total committed:227944893, progress insts committed: 2262700, IPC: 0.226044
18572495574324: Event_283: system.switch_cpus1 progress event, total committed:229307421, progress insts committed: 2275155, IPC: 0.227288
18572495574324: Event_284: system.switch_cpus2 progress event, total committed:227654785, progress insts committed: 2257138, IPC: 0.225488
18572495574324: Event_285: system.switch_cpus3 progress event, total committed:229226461, progress insts committed: 2268255, IPC: 0.226599
18575828907657: Event_285: system.switch_cpus3 progress event, total committed:231461885, progress insts committed: 2235424, IPC: 0.223319
18575828907657: Event_284: system.switch_cpus2 progress event, total committed:229915391, progress insts committed: 2260606, IPC: 0.225835
18575828907657: Event_283: system.switch_cpus1 progress event, total committed:231545485, progress insts committed: 2238064, IPC: 0.223583
18575828907657: Event_282: system.switch_cpus0 progress event, total committed:230165404, progress insts committed: 2220511, IPC: 0.221829
18579162240990: Event_282: system.switch_cpus0 progress event, total committed:232332844, progress insts committed: 2167440, IPC: 0.216527
18579162240990: Event_283: system.switch_cpus1 progress event, total committed:233717710, progress insts committed: 2172225, IPC: 0.217005
18579162240990: Event_284: system.switch_cpus2 progress event, total committed:232082556, progress insts committed: 2167165, IPC: 000.2165
18579162240990: Event_285: system.switch_cpus3 progress event, total committed:233629600, progress insts committed: 2167715, IPC: 0.216555
18582495574323: Event_285: system.switch_cpus3 progress event, total committed:235916661, progress insts committed: 2287061, IPC: 0.228477
18582495574323: Event_284: system.switch_cpus2 progress event, total committed:234356421, progress insts committed: 2273865, IPC: 0.227159
18582495574323: Event_283: system.switch_cpus1 progress event, total committed:235985250, progress insts committed: 2267540, IPC: 0.226527
18582495574323: Event_282: system.switch_cpus0 progress event, total committed:234607263, progress insts committed: 2274419, IPC: 0.227214
18585828907656: Event_282: system.switch_cpus0 progress event, total committed:236971320, progress insts committed: 2364057, IPC: 0.236169
18585828907656: Event_283: system.switch_cpus1 progress event, total committed:240034894, progress insts committed: 4049644, IPC: 0.404559
18585828907656: Event_284: system.switch_cpus2 progress event, total committed:236782911, progress insts committed: 2426490, IPC: 0.242406
18585828907656: Event_285: system.switch_cpus3 progress event, total committed:239888587, progress insts committed: 3971926, IPC: 0.396795
18589162240989: Event_285: system.switch_cpus3 progress event, total committed:244716709, progress insts committed: 4828122, IPC: 0.482329
18589162240989: Event_284: system.switch_cpus2 progress event, total committed:242208871, progress insts committed: 5425960, IPC: 0.542053
18589162240989: Event_283: system.switch_cpus1 progress event, total committed:244855464, progress insts committed: 4820570, IPC: 0.481575
18589162240989: Event_282: system.switch_cpus0 progress event, total committed:242515277, progress insts committed: 5543957, IPC: 0.553841
18592495574322: Event_282: system.switch_cpus0 progress event, total committed:247989682, progress insts committed: 5474405, IPC: 0.546893
18592495574322: Event_283: system.switch_cpus1 progress event, total committed:250375648, progress insts committed: 5520184, IPC: 0.551466
18592495574322: Event_284: system.switch_cpus2 progress event, total committed:247667217, progress insts committed: 5458346, IPC: 0.545289
18592495574322: Event_285: system.switch_cpus3 progress event, total committed:250233550, progress insts committed: 5516841, IPC: 0.551132
18595828907655: Event_285: system.switch_cpus3 progress event, total committed:255678145, progress insts committed: 5444595, IPC: 0.543915
18595828907655: Event_284: system.switch_cpus2 progress event, total committed:253065067, progress insts committed: 5397850, IPC: 0.539245
18595828907655: Event_283: system.switch_cpus1 progress event, total committed:255839080, progress insts committed: 5463432, IPC: 0.545797
18595828907655: Event_282: system.switch_cpus0 progress event, total committed:253396979, progress insts committed: 5407297, IPC: 0.540189
18599162240988: Event_282: system.switch_cpus0 progress event, total committed:257433429, progress insts committed: 4036450, IPC: 0.403241
18599162240988: Event_283: system.switch_cpus1 progress event, total committed:257528585, progress insts committed: 1689505, IPC: 0.168782
18599162240988: Event_284: system.switch_cpus2 progress event, total committed:257420771, progress insts committed: 4355704, IPC: 0.435135
18599162240988: Event_285: system.switch_cpus3 progress event, total committed:257522579, progress insts committed: 1844434, IPC: 0.184259
18602495574321: Event_285: system.switch_cpus3 progress event, total committed:257680547, progress insts committed: 157968, IPC: 0.015781
18602495574321: Event_284: system.switch_cpus2 progress event, total committed:257579858, progress insts committed: 159087, IPC: 0.0158928
18602495574321: Event_283: system.switch_cpus1 progress event, total committed:257686067, progress insts committed: 157482, IPC: 0.0157325
18602495574321: Event_282: system.switch_cpus0 progress event, total committed:257591331, progress insts committed: 157902, IPC: 0.0157744
18605828907654: Event_282: system.switch_cpus0 progress event, total committed:257743860, progress insts committed: 152529, IPC: 0.0152376
18605828907654: Event_283: system.switch_cpus1 progress event, total committed:257837885, progress insts committed: 151818, IPC: 0.0151666
18605828907654: Event_284: system.switch_cpus2 progress event, total committed:257731581, progress insts committed: 151723, IPC: 0.0151571
18605828907654: Event_285: system.switch_cpus3 progress event, total committed:257831948, progress insts committed: 151401, IPC: 0.015125
18609162240987: Event_285: system.switch_cpus3 progress event, total committed:257994527, progress insts committed: 162579, IPC: 0.0162416
18609162240987: Event_284: system.switch_cpus2 progress event, total committed:257882150, progress insts committed: 150569, IPC: 0.0150418
18609162240987: Event_283: system.switch_cpus1 progress event, total committed:258000575, progress insts committed: 162690, IPC: 0.0162527
18609162240987: Event_282: system.switch_cpus0 progress event, total committed:257894502, progress insts committed: 150642, IPC: 0.0150491
18612495574320: Event_282: system.switch_cpus0 progress event, total committed:258060240, progress insts committed: 165738, IPC: 0.0165572
18612495574320: Event_283: system.switch_cpus1 progress event, total committed:258166625, progress insts committed: 166050, IPC: 0.0165884
18612495574320: Event_284: system.switch_cpus2 progress event, total committed:258047321, progress insts committed: 165171, IPC: 0.0165006
18612495574320: Event_285: system.switch_cpus3 progress event, total committed:258160838, progress insts committed: 166311, IPC: 0.0166145
18615828907653: Event_285: system.switch_cpus3 progress event, total committed:258327776, progress insts committed: 166938, IPC: 0.0166771
18615828907653: Event_284: system.switch_cpus2 progress event, total committed:258210563, progress insts committed: 163242, IPC: 0.0163079
18615828907653: Event_283: system.switch_cpus1 progress event, total committed:258334382, progress insts committed: 167757, IPC: 0.0167589
18615828907653: Event_282: system.switch_cpus0 progress event, total committed:258223095, progress insts committed: 162855, IPC: 0.0162692
18619162240986: Event_282: system.switch_cpus0 progress event, total committed:258363573, progress insts committed: 140478, IPC: 0.0140338
18619162240986: Event_283: system.switch_cpus1 progress event, total committed:259177000, progress insts committed: 842618, IPC: 0.0841775
18619162240986: Event_284: system.switch_cpus2 progress event, total committed:258350153, progress insts committed: 139590, IPC: 0.013945
18619162240986: Event_285: system.switch_cpus3 progress event, total committed:259055878, progress insts committed: 728102, IPC: 0.0727374
18622495574319: Event_285: system.switch_cpus3 progress event, total committed:261089738, progress insts committed: 2033860, IPC: 0.203183
18622495574319: Event_284: system.switch_cpus2 progress event, total committed:258861698, progress insts committed: 511545, IPC: 0.0511033
18622495574319: Event_283: system.switch_cpus1 progress event, total committed:261194273, progress insts committed: 2017273, IPC: 0.201526
18622495574319: Event_282: system.switch_cpus0 progress event, total committed:259117499, progress insts committed: 753926, IPC: 0.0753172
18625828907652: Event_282: system.switch_cpus0 progress event, total committed:260966166, progress insts committed: 1848667, IPC: 0.184682
18625828907652: Event_283: system.switch_cpus1 progress event, total committed:262559138, progress insts committed: 1364865, IPC: 00.13635
18625828907652: Event_284: system.switch_cpus2 progress event, total committed:260745578, progress insts committed: 1883880, IPC: 000.1882
18625828907652: Event_285: system.switch_cpus3 progress event, total committed:262544057, progress insts committed: 1454319, IPC: 0.145286
18629162240985: Event_285: system.switch_cpus3 progress event, total committed:263143356, progress insts committed: 599299, IPC: 00.05987
18629162240985: Event_284: system.switch_cpus2 progress event, total committed:262566827, progress insts committed: 1821249, IPC: 0.181943
18629162240985: Event_283: system.switch_cpus1 progress event, total committed:263207556, progress insts committed: 648418, IPC: 0.064777
18629162240985: Event_282: system.switch_cpus0 progress event, total committed:262616772, progress insts committed: 1650606, IPC: 0.164896
18632495574318: Event_282: system.switch_cpus0 progress event, total committed:263240704, progress insts committed: 623932, IPC: 0.0623308
18632495574318: Event_283: system.switch_cpus1 progress event, total committed:264833991, progress insts committed: 1626435, IPC: 0.162481
18632495574318: Event_284: system.switch_cpus2 progress event, total committed:263036916, progress insts committed: 470089, IPC: 0.0469619
18632495574318: Event_285: system.switch_cpus3 progress event, total committed:264770541, progress insts committed: 1627185, IPC: 0.162556
18635828907651: Event_285: system.switch_cpus3 progress event, total committed:265901901, progress insts committed: 1131360, IPC: 0.113023
18635828907651: Event_284: system.switch_cpus2 progress event, total committed:264179541, progress insts committed: 1142625, IPC: 0.114148
18635828907651: Event_283: system.switch_cpus1 progress event, total committed:265963956, progress insts committed: 1129965, IPC: 0.112884
18635828907651: Event_282: system.switch_cpus0 progress event, total committed:264384124, progress insts committed: 1143420, IPC: 0.114228
18639162240984: Event_282: system.switch_cpus0 progress event, total committed:265756684, progress insts committed: 1372560, IPC: 0.137119
18639162240984: Event_283: system.switch_cpus1 progress event, total committed:266779798, progress insts committed: 815842, IPC: 0.0815026
18639162240984: Event_284: system.switch_cpus2 progress event, total committed:265557621, progress insts committed: 1378080, IPC: 00.13767
18639162240984: Event_285: system.switch_cpus3 progress event, total committed:266764618, progress insts committed: 862717, IPC: 0.0861854
18642495574317: Event_285: system.switch_cpus3 progress event, total committed:267578337, progress insts committed: 813719, IPC: 0.0812905
18642495574317: Event_284: system.switch_cpus2 progress event, total committed:266797618, progress insts committed: 1239997, IPC: 0.123876
18642495574317: Event_283: system.switch_cpus1 progress event, total committed:267655662, progress insts committed: 875864, IPC: 0.0874988
18642495574317: Event_282: system.switch_cpus0 progress event, total committed:266842811, progress insts committed: 1086127, IPC: 0.108504
18645828907650: Event_282: system.switch_cpus0 progress event, total committed:267542320, progress insts committed: 699509, IPC: 0.0698809
18645828907650: Event_283: system.switch_cpus1 progress event, total committed:269298792, progress insts committed: 1643130, IPC: 0.164149
18645828907650: Event_284: system.switch_cpus2 progress event, total committed:267336702, progress insts committed: 539084, IPC: 0.0538545
18645828907650: Event_285: system.switch_cpus3 progress event, total committed:269222967, progress insts committed: 1644630, IPC: 0.164299
18649162240983: Event_285: system.switch_cpus3 progress event, total committed:270406872, progress insts committed: 1183905, IPC: 0.118272
18649162240983: Event_284: system.switch_cpus2 progress event, total committed:268531857, progress insts committed: 1195155, IPC: 0.119396
18649162240983: Event_283: system.switch_cpus1 progress event, total committed:270482247, progress insts committed: 1183455, IPC: 0.118227
18649162240983: Event_282: system.switch_cpus0 progress event, total committed:268731055, progress insts committed: 1188735, IPC: 0.118755
18652495574316: Event_282: system.switch_cpus0 progress event, total committed:270401110, progress insts committed: 1670055, IPC: 0.166838
18652495574316: Event_283: system.switch_cpus1 progress event, total committed:271074406, progress insts committed: 592159, IPC: 0.0591567
18652495574316: Event_284: system.switch_cpus2 progress event, total committed:270212877, progress insts committed: 1681020, IPC: 0.167934
18652495574316: Event_285: system.switch_cpus3 progress event, total committed:271056421, progress insts committed: 649549, IPC: 0.0648899
[...]
18679162240980: Event_283: system.switch_cpus1 progress event, total committed:294889241, progress insts committed: 2199725, IPC: 0.219753
18679162240980: Event_284: system.switch_cpus2 progress event, total committed:292807931, progress insts committed: 2179929, IPC: 0.217775
18679162240980: Event_285: system.switch_cpus3 progress event, total committed:294687116, progress insts committed: 2214080, IPC: 0.221187
18682495574313: Event_285: system.switch_cpus3 progress event, total committed:299768958, progress insts committed: 5081842, IPC: 0.507676
18682495574313: Event_284: system.switch_cpus2 progress event, total committed:296443337, progress insts committed: 3635406, IPC: 0.363177
18682495574313: Event_283: system.switch_cpus1 progress event, total committed:300099386, progress insts committed: 5210145, IPC: 0.520493
18682495574313: Event_282: system.switch_cpus0 progress event, total committed:297096133, progress insts committed: 4013388, IPC: 0.400937
18685828907646: Event_282: system.switch_cpus0 progress event, total committed:302052540, progress insts committed: 4956407, IPC: 0.495145
18685828907646: Event_283: system.switch_cpus1 progress event, total committed:304514263, progress insts committed: 4414877, IPC: 0.441046
18685828907646: Event_284: system.switch_cpus2 progress event, total committed:301572162, progress insts committed: 5128825, IPC: 00.51237
18685828907646: Event_285: system.switch_cpus3 progress event, total committed:304322808, progress insts committed: 4553850, IPC: 00.45493
18689162240979: Event_285: system.switch_cpus3 progress event, total committed:306924363, progress insts committed: 2601555, IPC: 0.259895
18689162240979: Event_284: system.switch_cpus2 progress event, total committed:304890683, progress insts committed: 3318521, IPC: 00.33152
18689162240979: Event_283: system.switch_cpus1 progress event, total committed:307083144, progress insts committed: 2568881, IPC: 0.256631
18689162240979: Event_282: system.switch_cpus0 progress event, total committed:305209222, progress insts committed: 3156682, IPC: 0.315353
18692495574312: Event_282: system.switch_cpus0 progress event, total committed:307520216, progress insts committed: 2310994, IPC: 0.230868
18692495574312: Event_283: system.switch_cpus1 progress event, total committed:309375677, progress insts committed: 2292533, IPC: 0.229024
18692495574312: Event_284: system.switch_cpus2 progress event, total committed:307163829, progress insts committed: 2273146, IPC: 0.227087
18692495574312: Event_285: system.switch_cpus3 progress event, total committed:309242503, progress insts committed: 2318140, IPC: 0.231582
18695828907645: Event_285: system.switch_cpus3 progress event, total committed:313801626, progress insts committed: 4559123, IPC: 0.455456
18695828907645: Event_284: system.switch_cpus2 progress event, total committed:309601708, progress insts committed: 2437879, IPC: 0.243544
18695828907645: Event_283: system.switch_cpus1 progress event, total committed:313864301, progress insts committed: 4488624, IPC: 0.448414
18695828907645: Event_282: system.switch_cpus0 progress event, total committed:309968871, progress insts committed: 2448655, IPC: 0.244621
18699162240978: Event_282: system.switch_cpus0 progress event, total committed:315859975, progress insts committed: 5891104, IPC: 0.588521
18699162240978: Event_283: system.switch_cpus1 progress event, total committed:318893085, progress insts committed: 5028784, IPC: 0.502376
18699162240978: Event_284: system.switch_cpus2 progress event, total committed:315214219, progress insts committed: 5612511, IPC: 00.56069
18699162240978: Event_285: system.switch_cpus3 progress event, total committed:318819032, progress insts committed: 5017406, IPC: 0.501239
18702495574311: Event_285: system.switch_cpus3 progress event, total committed:320755255, progress insts committed: 1936223, IPC: 0.193429
18702495574311: Event_284: system.switch_cpus2 progress event, total committed:320612691, progress insts committed: 5398472, IPC: 0.539307
18702495574311: Event_283: system.switch_cpus1 progress event, total committed:320757766, progress insts committed: 1864681, IPC: 0.186282
18702495574311: Event_282: system.switch_cpus0 progress event, total committed:320646827, progress insts committed: 4786852, IPC: 0.478207
18705828907644: Event_282: system.switch_cpus0 progress event, total committed:320808785, progress insts committed: 161958, IPC: 0.0161796
18705828907644: Event_283: system.switch_cpus1 progress event, total committed:320923014, progress insts committed: 165248, IPC: 0.0165083
18705828907644: Event_284: system.switch_cpus2 progress event, total committed:320784217, progress insts committed: 171526, IPC: 0.0171354
18705828907644: Event_285: system.switch_cpus3 progress event, total committed:320919597, progress insts committed: 164342, IPC: 0.0164178
18709162240977: Event_285: system.switch_cpus3 progress event, total committed:321085320, progress insts committed: 165723, IPC: 0.0165557
18709162240977: Event_284: system.switch_cpus2 progress event, total committed:320940093, progress insts committed: 155876, IPC: 0.015572
18709162240977: Event_283: system.switch_cpus1 progress event, total committed:321088476, progress insts committed: 165462, IPC: 0.0165297
18709162240977: Event_282: system.switch_cpus0 progress event, total committed:320965849, progress insts committed: 157064, IPC: 0.0156907
18712495574310: Event_282: system.switch_cpus0 progress event, total committed:321090916, progress insts committed: 125067, IPC: 0.0124942
18712495574310: Event_283: system.switch_cpus1 progress event, total committed:322061689, progress insts committed: 973213, IPC: 0.097224
18712495574310: Event_284: system.switch_cpus2 progress event, total committed:321064329, progress insts committed: 124236, IPC: 0.0124112
18712495574310: Event_285: system.switch_cpus3 progress event, total committed:322015939, progress insts committed: 930619, IPC: 0.0929688
18715828907643: Event_285: system.switch_cpus3 progress event, total committed:323253154, progress insts committed: 1237215, IPC: 0.123598
18715828907643: Event_284: system.switch_cpus2 progress event, total committed:321497809, progress insts committed: 433480, IPC: 0.0433047
18715828907643: Event_283: system.switch_cpus1 progress event, total committed:323260348, progress insts committed: 1198659, IPC: 0.119746
18715828907643: Event_282: system.switch_cpus0 progress event, total committed:321924302, progress insts committed: 833386, IPC: 0.0832553
18719162240976: Event_282: system.switch_cpus0 progress event, total committed:323118860, progress insts committed: 1194558, IPC: 0.119336
18719162240976: Event_283: system.switch_cpus1 progress event, total committed:324398511, progress insts committed: 1138163, IPC: 0.113702
18719162240976: Event_284: system.switch_cpus2 progress event, total committed:322765969, progress insts committed: 1268160, IPC: 0.126689
18719162240976: Event_285: system.switch_cpus3 progress event, total committed:324366381, progress insts committed: 1113227, IPC: 0.111211
18722495574309: Event_285: system.switch_cpus3 progress event, total committed:325469495, progress insts committed: 1103114, IPC: 0.110201
18722495574309: Event_284: system.switch_cpus2 progress event, total committed:323878551, progress insts committed: 1112582, IPC: 0.111147
18722495574309: Event_283: system.switch_cpus1 progress event, total committed:325500295, progress insts committed: 1101784, IPC: 0.110068
18722495574309: Event_282: system.switch_cpus0 progress event, total committed:324288724, progress insts committed: 1169864, IPC: 0.116869
18725828907642: Event_282: system.switch_cpus0 progress event, total committed:325318849, progress insts committed: 1030125, IPC: 0.102909
18725828907642: Event_283: system.switch_cpus1 progress event, total committed:327054960, progress insts committed: 1554665, IPC: 0.155311
18725828907642: Event_284: system.switch_cpus2 progress event, total committed:325196898, progress insts committed: 1318347, IPC: 0.131703
18725828907642: Event_285: system.switch_cpus3 progress event, total committed:327028680, progress insts committed: 1559185, IPC: 0.155763
18729162240975: Event_285: system.switch_cpus3 progress event, total committed:328267448, progress insts committed: 1238768, IPC: 0.123753
18729162240975: Event_284: system.switch_cpus2 progress event, total committed:326681399, progress insts committed: 1484501, IPC: 0.148302
18729162240975: Event_283: system.switch_cpus1 progress event, total committed:328275093, progress insts committed: 1220133, IPC: 0.121891
18729162240975: Event_282: system.switch_cpus0 progress event, total committed:327167263, progress insts committed: 1848414, IPC: 0.184657
18732495574308: Event_282: system.switch_cpus0 progress event, total committed:328692196, progress insts committed: 1524933, IPC: 0.152341
18732495574308: Event_283: system.switch_cpus1 progress event, total committed:330382583, progress insts committed: 2107490, IPC: 0.210538
18732495574308: Event_284: system.switch_cpus2 progress event, total committed:328127524, progress insts committed: 1446125, IPC: 0.144468
18732495574308: Event_285: system.switch_cpus3 progress event, total committed:330378073, progress insts committed: 2110625, IPC: 0.210851
18735828907641: Event_285: system.switch_cpus3 progress event, total committed:335115028, progress insts committed: 4736955, IPC: 0.473222
18735828907641: Event_284: system.switch_cpus2 progress event, total committed:330606103, progress insts committed: 2478579, IPC: 00.24761
18735828907641: Event_283: system.switch_cpus1 progress event, total committed:335118598, progress insts committed: 4736015, IPC: 0.473128
18735828907641: Event_282: system.switch_cpus0 progress event, total committed:331160596, progress insts committed: 2468400, IPC: 0.246593
18739162240974: Event_282: system.switch_cpus0 progress event, total committed:336762093, progress insts committed: 5601497, IPC: 00.55959
18739162240974: Event_283: system.switch_cpus1 progress event, total committed:338392864, progress insts committed: 3274266, IPC: 0.327099
18739162240974: Event_284: system.switch_cpus2 progress event, total committed:336134621, progress insts committed: 5528518, IPC: 0.552299
18739162240974: Event_285: system.switch_cpus3 progress event, total committed:338356505, progress insts committed: 3241477, IPC: 0.323824
18742495574307: Event_285: system.switch_cpus3 progress event, total committed:342515068, progress insts committed: 4158563, IPC: 00.41544
18742495574307: Event_284: system.switch_cpus2 progress event, total committed:338623919, progress insts committed: 2489298, IPC: 0.248681
18742495574307: Event_283: system.switch_cpus1 progress event, total committed:342614642, progress insts committed: 4221778, IPC: 0.421756
18742495574307: Event_282: system.switch_cpus0 progress event, total committed:339118623, progress insts committed: 2356530, IPC: 0.235417
18745828907640: Event_282: system.switch_cpus0 progress event, total committed:344066381, progress insts committed: 4947758, IPC: 0.494281
18745828907640: Event_283: system.switch_cpus1 progress event, total committed:345905916, progress insts committed: 3291274, IPC: 0.328798
18745828907640: Event_284: system.switch_cpus2 progress event, total committed:343223978, progress insts committed: 4600059, IPC: 0.459546
18745828907640: Event_285: system.switch_cpus3 progress event, total committed:345824072, progress insts committed: 3309004, IPC: 0.330569
18749162240973: Event_285: system.switch_cpus3 progress event, total committed:349934937, progress insts committed: 4110865, IPC: 0.410675
18749162240973: Event_284: system.switch_cpus2 progress event, total committed:346072841, progress insts committed: 2848863, IPC: 0.284601
18749162240973: Event_283: system.switch_cpus1 progress event, total committed:350073010, progress insts committed: 4167094, IPC: 0.416293
18749162240973: Event_282: system.switch_cpus0 progress event, total committed:346586249, progress insts committed: 2519868, IPC: 0.251735
18752495574306: Event_282: system.switch_cpus0 progress event, total committed:351761133, progress insts committed: 5174884, IPC: 0.516971
18752495574306: Event_283: system.switch_cpus1 progress event, total committed:352932885, progress insts committed: 2859875, IPC: 0.285702
18752495574306: Event_284: system.switch_cpus2 progress event, total committed:350833751, progress insts committed: 4760910, IPC: 0.475615
18752495574306: Event_285: system.switch_cpus3 progress event, total committed:352926990, progress insts committed: 2992053, IPC: 0.298906
18755828907639: Event_285: system.switch_cpus3 progress event, total committed:353115214, progress insts committed: 188224, IPC: 0.0188036
18755828907639: Event_284: system.switch_cpus2 progress event, total committed:352956267, progress insts committed: 2122516, IPC: 0.212039
18755828907639: Event_283: system.switch_cpus1 progress event, total committed:353120971, progress insts committed: 188086, IPC: 0.0187898
18755828907639: Event_282: system.switch_cpus0 progress event, total committed:352990651, progress insts committed: 1229518, IPC: 0.122829
18759162240972: Event_282: system.switch_cpus0 progress event, total committed:353111009, progress insts committed: 120358, IPC: 0.0120238
18759162240972: Event_283: system.switch_cpus1 progress event, total committed:354859350, progress insts committed: 1738379, IPC: 0.173664
18759162240972: Event_284: system.switch_cpus2 progress event, total committed:353073874, progress insts committed: 117607, IPC: 0.0117489
18759162240972: Event_285: system.switch_cpus3 progress event, total committed:354800805, progress insts committed: 1685591, IPC: 0.168391
18762495574305: Event_285: system.switch_cpus3 progress event, total committed:356055323, progress insts committed: 1254518, IPC: 0.125326
18762495574305: Event_284: system.switch_cpus2 progress event, total committed:353863629, progress insts committed: 789755, IPC: 0.0788965
18762495574305: Event_283: system.switch_cpus1 progress event, total committed:356111738, progress insts committed: 1252388, IPC: 0.125114
18762495574305: Event_282: system.switch_cpus0 progress event, total committed:354308293, progress insts committed: 1197284, IPC: 0.119609
18765828907638: Event_282: system.switch_cpus0 progress event, total committed:355869426, progress insts committed: 1561133, IPC: 0.155957
18765828907638: Event_283: system.switch_cpus1 progress event, total committed:357640994, progress insts committed: 1529256, IPC: 0.152773
18765828907638: Event_284: system.switch_cpus2 progress event, total committed:355351035, progress insts committed: 1487406, IPC: 0.148592
18765828907638: Event_285: system.switch_cpus3 progress event, total committed:357602054, progress insts committed: 1546731, IPC: 0.154518
18769162240971: Event_285: system.switch_cpus3 progress event, total committed:361649351, progress insts committed: 4047297, IPC: 0.404325
18769162240971: Event_284: system.switch_cpus2 progress event, total committed:357233385, progress insts committed: 1882350, IPC: 0.188047
18769162240971: Event_283: system.switch_cpus1 progress event, total committed:361672447, progress insts committed: 4031453, IPC: 0.402742
18769162240971: Event_282: system.switch_cpus0 progress event, total committed:357922467, progress insts committed: 2053041, IPC: 0.205099
18772495574304: Event_282: system.switch_cpus0 progress event, total committed:362365104, progress insts committed: 4442637, IPC: 0.443819
18772495574304: Event_283: system.switch_cpus1 progress event, total committed:365918258, progress insts committed: 4245811, IPC: 0.424157
18772495574304: Event_284: system.switch_cpus2 progress event, total committed:361614371, progress insts committed: 4380986, IPC: 0.437661
18772495574304: Event_285: system.switch_cpus3 progress event, total committed:365892133, progress insts committed: 4242782, IPC: 0.423854
18775828907637: Event_285: system.switch_cpus3 progress event, total committed:369713295, progress insts committed: 3821162, IPC: 0.381734
18775828907637: Event_284: system.switch_cpus2 progress event, total committed:365856709, progress insts committed: 4242338, IPC: 00.42381
18775828907637: Event_283: system.switch_cpus1 progress event, total committed:369713628, progress insts committed: 3795370, IPC: 0.379157
18775828907637: Event_282: system.switch_cpus0 progress event, total committed:366645286, progress insts committed: 4280182, IPC: 00.42759
18779162240970: Event_282: system.switch_cpus0 progress event, total committed:369736853, progress insts committed: 3091567, IPC: 0.308848
18779162240970: Event_283: system.switch_cpus1 progress event, total committed:370634558, progress insts committed: 920930, IPC: 0.0920009
18779162240970: Event_284: system.switch_cpus2 progress event, total committed:369687813, progress insts committed: 3831104, IPC: 0.382727
18779162240970: Event_285: system.switch_cpus3 progress event, total committed:370653983, progress insts committed: 940688, IPC: 0.0939747
18782495574303: Event_285: system.switch_cpus3 progress event, total committed:373786743, progress insts committed: 3132760, IPC: 0.312963
18782495574303: Event_284: system.switch_cpus2 progress event, total committed:369915182, progress insts committed: 227369, IPC: 0.0227142
18782495574303: Event_283: system.switch_cpus1 progress event, total committed:373801098, progress insts committed: 3166540, IPC: 0.316337
18782495574303: Event_282: system.switch_cpus0 progress event, total committed:370669821, progress insts committed: 932968, IPC: 0.0932035
18785828907636: Event_282: system.switch_cpus0 progress event, total committed:374089878, progress insts committed: 3420057, IPC: 0.341664
18785828907636: Event_283: system.switch_cpus1 progress event, total committed:378646531, progress insts committed: 4845433, IPC: 0.484059
18785828907636: Event_284: system.switch_cpus2 progress event, total committed:371982511, progress insts committed: 2067329, IPC: 0.206526
18785828907636: Event_285: system.switch_cpus3 progress event, total committed:378682391, progress insts committed: 4895648, IPC: 0.489075
18789162240969: Event_285: system.switch_cpus3 progress event, total committed:398738431, progress insts committed: 20056040, IPC: 002.0036
18789162240969: Event_284: system.switch_cpus2 progress event, total committed:378710276, progress insts committed: 6727765, IPC: 0.672104
18789162240969: Event_283: system.switch_cpus1 progress event, total committed:398333563, progress insts committed: 19687032, IPC: 01.96673
18789162240969: Event_282: system.switch_cpus0 progress event, total committed:381753644, progress insts committed: 7663766, IPC: 00.76561
18792495574302: Event_282: system.switch_cpus0 progress event, total committed:405900855, progress insts committed: 24147211, IPC: 02.41231
18792495574302: Event_283: system.switch_cpus1 progress event, total committed:423308627, progress insts committed: 24975064, IPC: 02.49501
18792495574302: Event_284: system.switch_cpus2 progress event, total committed:398643689, progress insts committed: 19933413, IPC: 01.99135
18792495574302: Event_285: system.switch_cpus3 progress event, total committed:423997516, progress insts committed: 25259085, IPC: 02.52338
18795828907635: Event_285: system.switch_cpus3 progress event, total committed:444377738, progress insts committed: 20380222, IPC: 02.03598
18795828907635: Event_284: system.switch_cpus2 progress event, total committed:421520462, progress insts committed: 22876773, IPC: 02.28539
18795828907635: Event_283: system.switch_cpus1 progress event, total committed:444159058, progress insts committed: 20850431, IPC: 02.08296
18795828907635: Event_282: system.switch_cpus0 progress event, total committed:428089878, progress insts committed: 22189023, IPC: 02.21668
Exiting @ tick 18796478054985 because a thread reached the max instruction count
