
---------- Begin Simulation Statistics ----------
final_tick                               18204067837872                       # Number of ticks from beginning of simulation (restored from checkpoints and never reset)
host_inst_rate                                 119227                       # Simulator instruction rate (inst/s)
host_mem_usage                               17498824                       # Number of bytes of host memory used
host_op_rate                                   217681                       # Simulator op (including micro ops) rate (op/s)
host_seconds                                  8385.33                       # Real time elapsed on the host
host_tick_rate                                6887443                       # Simulator tick rate (ticks/s)
sim_freq                                 1000000000000                       # Frequency of simulated ticks
sim_insts                                   999758778                       # Number of instructions simulated
sim_ops                                    1825324531                       # Number of ops (including micro ops) simulated
sim_seconds                                  0.057753                       # Number of seconds simulated
sim_ticks                                 57753466389                       # Number of ticks simulated
system.cpu0.Branches                                3                       # Number of branches fetched
system.cpu0.committedInsts                         12                       # Number of instructions committed
system.cpu0.committedOps                           24                       # Number of ops (including micro ops) committed
system.cpu0.idle_fraction                           0                       # Percentage of idle cycles
system.cpu0.l2bus.snoop_filter.hit_multi_requests          245                       # Number of requests hitting in the snoop filter with multiple (>1) holders of the requested data.
system.cpu0.l2bus.snoop_filter.hit_multi_snoops            0                       # Number of snoops hitting in the snoop filter with multiple (>1) holders of the requested data.
system.cpu0.l2bus.snoop_filter.hit_single_requests      1779251                       # Number of requests hitting in the snoop filter with a single holder of the requested data.
system.cpu0.l2bus.snoop_filter.hit_single_snoops        24505                       # Number of snoops hitting in the snoop filter with a single holder of the requested data.
system.cpu0.l2bus.snoop_filter.tot_requests      3447252                       # Total number of requests made to the snoop filter.
system.cpu0.l2bus.snoop_filter.tot_snoops        24505                       # Total number of snoops made to the snoop filter.
system.cpu0.mmucache.mmubus.snoop_filter.hit_multi_requests            0                       # Number of requests hitting in the snoop filter with multiple (>1) holders of the requested data.
system.cpu0.mmucache.mmubus.snoop_filter.hit_multi_snoops            0                       # Number of snoops hitting in the snoop filter with multiple (>1) holders of the requested data.
system.cpu0.mmucache.mmubus.snoop_filter.hit_single_requests            0                       # Number of requests hitting in the snoop filter with a single holder of the requested data.
system.cpu0.mmucache.mmubus.snoop_filter.hit_single_snoops            0                       # Number of snoops hitting in the snoop filter with a single holder of the requested data.
system.cpu0.mmucache.mmubus.snoop_filter.tot_requests            0                       # Total number of requests made to the snoop filter.
system.cpu0.mmucache.mmubus.snoop_filter.tot_snoops            0                       # Total number of snoops made to the snoop filter.
system.cpu0.not_idle_fraction                       1                       # Percentage of non-idle cycles
system.cpu0.numCycles                              30                       # number of cpu cycles simulated
system.cpu0.numWorkItemsCompleted                   0                       # number of work items this cpu completed
system.cpu0.numWorkItemsStarted                     0                       # number of work items this cpu started
system.cpu0.num_busy_cycles                        30                       # Number of busy cycles
system.cpu0.num_cc_register_reads                  20                       # number of times the CC registers were read
system.cpu0.num_cc_register_writes                  6                       # number of times the CC registers were written
system.cpu0.num_conditional_control_insts            3                       # number of instructions that are conditional controls
system.cpu0.num_fp_alu_accesses                    14                       # Number of float alu accesses
system.cpu0.num_fp_insts                           14                       # number of float instructions
system.cpu0.num_fp_register_reads                  18                       # number of times the floating registers were read
system.cpu0.num_fp_register_writes                 12                       # number of times the floating registers were written
system.cpu0.num_func_calls                          0                       # number of times a function call or return occured
system.cpu0.num_idle_cycles                         0                       # Number of idle cycles
system.cpu0.num_int_alu_accesses                   12                       # Number of integer alu accesses
system.cpu0.num_int_insts                          12                       # number of integer instructions
system.cpu0.num_int_register_reads                 20                       # number of times the integer registers were read
system.cpu0.num_int_register_writes                 7                       # number of times the integer registers were written
system.cpu0.num_load_insts                          2                       # Number of load instructions
system.cpu0.num_mem_refs                            2                       # number of memory refs
system.cpu0.num_store_insts                         0                       # Number of store instructions
system.cpu0.num_vec_alu_accesses                    0                       # Number of vector alu accesses
system.cpu0.num_vec_insts                           0                       # number of vector instructions
system.cpu0.num_vec_register_reads                  0                       # number of times the vector registers were read
system.cpu0.num_vec_register_writes                 0                       # number of times the vector registers were written
system.cpu0.op_class::No_OpClass                    0      0.00%      0.00% # Class of executed instruction
system.cpu0.op_class::IntAlu                       14     58.33%     58.33% # Class of executed instruction
system.cpu0.op_class::IntMult                       0      0.00%     58.33% # Class of executed instruction
system.cpu0.op_class::IntDiv                        0      0.00%     58.33% # Class of executed instruction
system.cpu0.op_class::FloatAdd                      4     16.67%     75.00% # Class of executed instruction
system.cpu0.op_class::FloatCmp                      0      0.00%     75.00% # Class of executed instruction
system.cpu0.op_class::FloatCvt                      0      0.00%     75.00% # Class of executed instruction
system.cpu0.op_class::FloatMult                     0      0.00%     75.00% # Class of executed instruction
system.cpu0.op_class::FloatMultAcc                  0      0.00%     75.00% # Class of executed instruction
system.cpu0.op_class::FloatDiv                      0      0.00%     75.00% # Class of executed instruction
system.cpu0.op_class::FloatMisc                     0      0.00%     75.00% # Class of executed instruction
system.cpu0.op_class::FloatSqrt                     0      0.00%     75.00% # Class of executed instruction
system.cpu0.op_class::SimdAdd                       0      0.00%     75.00% # Class of executed instruction
system.cpu0.op_class::SimdAddAcc                    0      0.00%     75.00% # Class of executed instruction
system.cpu0.op_class::SimdAlu                       0      0.00%     75.00% # Class of executed instruction
system.cpu0.op_class::SimdCmp                       0      0.00%     75.00% # Class of executed instruction
system.cpu0.op_class::SimdCvt                       0      0.00%     75.00% # Class of executed instruction
system.cpu0.op_class::SimdMisc                      0      0.00%     75.00% # Class of executed instruction
system.cpu0.op_class::SimdMult                      0      0.00%     75.00% # Class of executed instruction
system.cpu0.op_class::SimdMultAcc                   0      0.00%     75.00% # Class of executed instruction
system.cpu0.op_class::SimdShift                     0      0.00%     75.00% # Class of executed instruction
system.cpu0.op_class::SimdShiftAcc                  0      0.00%     75.00% # Class of executed instruction
system.cpu0.op_class::SimdDiv                       0      0.00%     75.00% # Class of executed instruction
system.cpu0.op_class::SimdSqrt                      0      0.00%     75.00% # Class of executed instruction
system.cpu0.op_class::SimdFloatAdd                  1      4.17%     79.17% # Class of executed instruction
system.cpu0.op_class::SimdFloatAlu                  0      0.00%     79.17% # Class of executed instruction
system.cpu0.op_class::SimdFloatCmp                  0      0.00%     79.17% # Class of executed instruction
system.cpu0.op_class::SimdFloatCvt                  2      8.33%     87.50% # Class of executed instruction
system.cpu0.op_class::SimdFloatDiv                  0      0.00%     87.50% # Class of executed instruction
system.cpu0.op_class::SimdFloatMisc                 0      0.00%     87.50% # Class of executed instruction
system.cpu0.op_class::SimdFloatMult                 1      4.17%     91.67% # Class of executed instruction
system.cpu0.op_class::SimdFloatMultAcc              0      0.00%     91.67% # Class of executed instruction
system.cpu0.op_class::SimdFloatSqrt                 0      0.00%     91.67% # Class of executed instruction
system.cpu0.op_class::SimdReduceAdd                 0      0.00%     91.67% # Class of executed instruction
system.cpu0.op_class::SimdReduceAlu                 0      0.00%     91.67% # Class of executed instruction
system.cpu0.op_class::SimdReduceCmp                 0      0.00%     91.67% # Class of executed instruction
system.cpu0.op_class::SimdFloatReduceAdd            0      0.00%     91.67% # Class of executed instruction
system.cpu0.op_class::SimdFloatReduceCmp            0      0.00%     91.67% # Class of executed instruction
system.cpu0.op_class::SimdAes                       0      0.00%     91.67% # Class of executed instruction
system.cpu0.op_class::SimdAesMix                    0      0.00%     91.67% # Class of executed instruction
system.cpu0.op_class::SimdSha1Hash                  0      0.00%     91.67% # Class of executed instruction
system.cpu0.op_class::SimdSha1Hash2                 0      0.00%     91.67% # Class of executed instruction
system.cpu0.op_class::SimdSha256Hash                0      0.00%     91.67% # Class of executed instruction
system.cpu0.op_class::SimdSha256Hash2               0      0.00%     91.67% # Class of executed instruction
system.cpu0.op_class::SimdShaSigma2                 0      0.00%     91.67% # Class of executed instruction
system.cpu0.op_class::SimdShaSigma3                 0      0.00%     91.67% # Class of executed instruction
system.cpu0.op_class::SimdPredAlu                   0      0.00%     91.67% # Class of executed instruction
system.cpu0.op_class::MemRead                       0      0.00%     91.67% # Class of executed instruction
system.cpu0.op_class::MemWrite                      0      0.00%     91.67% # Class of executed instruction
system.cpu0.op_class::FloatMemRead                  2      8.33%    100.00% # Class of executed instruction
system.cpu0.op_class::FloatMemWrite                 0      0.00%    100.00% # Class of executed instruction
system.cpu0.op_class::IprAccess                     0      0.00%    100.00% # Class of executed instruction
system.cpu0.op_class::InstPrefetch                  0      0.00%    100.00% # Class of executed instruction
system.cpu0.op_class::total                        24                       # Class of executed instruction
system.cpu0.workload.numSyscalls                    0                       # Number of system calls
system.cpu1.Branches                                3                       # Number of branches fetched
system.cpu1.committedInsts                         12                       # Number of instructions committed
system.cpu1.committedOps                           24                       # Number of ops (including micro ops) committed
system.cpu1.idle_fraction                           0                       # Percentage of idle cycles
system.cpu1.l2bus.snoop_filter.hit_multi_requests          432                       # Number of requests hitting in the snoop filter with multiple (>1) holders of the requested data.
system.cpu1.l2bus.snoop_filter.hit_multi_snoops            0                       # Number of snoops hitting in the snoop filter with multiple (>1) holders of the requested data.
system.cpu1.l2bus.snoop_filter.hit_single_requests      1779527                       # Number of requests hitting in the snoop filter with a single holder of the requested data.
system.cpu1.l2bus.snoop_filter.hit_single_snoops        24616                       # Number of snoops hitting in the snoop filter with a single holder of the requested data.
system.cpu1.l2bus.snoop_filter.tot_requests      3447720                       # Total number of requests made to the snoop filter.
system.cpu1.l2bus.snoop_filter.tot_snoops        24616                       # Total number of snoops made to the snoop filter.
system.cpu1.mmucache.mmubus.snoop_filter.hit_multi_requests            0                       # Number of requests hitting in the snoop filter with multiple (>1) holders of the requested data.
system.cpu1.mmucache.mmubus.snoop_filter.hit_multi_snoops            0                       # Number of snoops hitting in the snoop filter with multiple (>1) holders of the requested data.
system.cpu1.mmucache.mmubus.snoop_filter.hit_single_requests            0                       # Number of requests hitting in the snoop filter with a single holder of the requested data.
system.cpu1.mmucache.mmubus.snoop_filter.hit_single_snoops            0                       # Number of snoops hitting in the snoop filter with a single holder of the requested data.
system.cpu1.mmucache.mmubus.snoop_filter.tot_requests            0                       # Total number of requests made to the snoop filter.
system.cpu1.mmucache.mmubus.snoop_filter.tot_snoops            0                       # Total number of snoops made to the snoop filter.
system.cpu1.not_idle_fraction                       1                       # Percentage of non-idle cycles
system.cpu1.numCycles                              30                       # number of cpu cycles simulated
system.cpu1.numWorkItemsCompleted                   0                       # number of work items this cpu completed
system.cpu1.numWorkItemsStarted                     0                       # number of work items this cpu started
system.cpu1.num_busy_cycles                        30                       # Number of busy cycles
system.cpu1.num_cc_register_reads                  20                       # number of times the CC registers were read
system.cpu1.num_cc_register_writes                  6                       # number of times the CC registers were written
system.cpu1.num_conditional_control_insts            3                       # number of instructions that are conditional controls
system.cpu1.num_fp_alu_accesses                    14                       # Number of float alu accesses
system.cpu1.num_fp_insts                           14                       # number of float instructions
system.cpu1.num_fp_register_reads                  18                       # number of times the floating registers were read
system.cpu1.num_fp_register_writes                 12                       # number of times the floating registers were written
system.cpu1.num_func_calls                          0                       # number of times a function call or return occured
system.cpu1.num_idle_cycles                         0                       # Number of idle cycles
system.cpu1.num_int_alu_accesses                   12                       # Number of integer alu accesses
system.cpu1.num_int_insts                          12                       # number of integer instructions
system.cpu1.num_int_register_reads                 20                       # number of times the integer registers were read
system.cpu1.num_int_register_writes                 7                       # number of times the integer registers were written
system.cpu1.num_load_insts                          2                       # Number of load instructions
system.cpu1.num_mem_refs                            2                       # number of memory refs
system.cpu1.num_store_insts                         0                       # Number of store instructions
system.cpu1.num_vec_alu_accesses                    0                       # Number of vector alu accesses
system.cpu1.num_vec_insts                           0                       # number of vector instructions
system.cpu1.num_vec_register_reads                  0                       # number of times the vector registers were read
system.cpu1.num_vec_register_writes                 0                       # number of times the vector registers were written
system.cpu1.op_class::No_OpClass                    0      0.00%      0.00% # Class of executed instruction
system.cpu1.op_class::IntAlu                       14     58.33%     58.33% # Class of executed instruction
system.cpu1.op_class::IntMult                       0      0.00%     58.33% # Class of executed instruction
system.cpu1.op_class::IntDiv                        0      0.00%     58.33% # Class of executed instruction
system.cpu1.op_class::FloatAdd                      4     16.67%     75.00% # Class of executed instruction
system.cpu1.op_class::FloatCmp                      0      0.00%     75.00% # Class of executed instruction
system.cpu1.op_class::FloatCvt                      0      0.00%     75.00% # Class of executed instruction
system.cpu1.op_class::FloatMult                     0      0.00%     75.00% # Class of executed instruction
system.cpu1.op_class::FloatMultAcc                  0      0.00%     75.00% # Class of executed instruction
system.cpu1.op_class::FloatDiv                      0      0.00%     75.00% # Class of executed instruction
system.cpu1.op_class::FloatMisc                     0      0.00%     75.00% # Class of executed instruction
system.cpu1.op_class::FloatSqrt                     0      0.00%     75.00% # Class of executed instruction
system.cpu1.op_class::SimdAdd                       0      0.00%     75.00% # Class of executed instruction
system.cpu1.op_class::SimdAddAcc                    0      0.00%     75.00% # Class of executed instruction
system.cpu1.op_class::SimdAlu                       0      0.00%     75.00% # Class of executed instruction
system.cpu1.op_class::SimdCmp                       0      0.00%     75.00% # Class of executed instruction
system.cpu1.op_class::SimdCvt                       0      0.00%     75.00% # Class of executed instruction
system.cpu1.op_class::SimdMisc                      0      0.00%     75.00% # Class of executed instruction
system.cpu1.op_class::SimdMult                      0      0.00%     75.00% # Class of executed instruction
system.cpu1.op_class::SimdMultAcc                   0      0.00%     75.00% # Class of executed instruction
system.cpu1.op_class::SimdShift                     0      0.00%     75.00% # Class of executed instruction
system.cpu1.op_class::SimdShiftAcc                  0      0.00%     75.00% # Class of executed instruction
system.cpu1.op_class::SimdDiv                       0      0.00%     75.00% # Class of executed instruction
system.cpu1.op_class::SimdSqrt                      0      0.00%     75.00% # Class of executed instruction
system.cpu1.op_class::SimdFloatAdd                  1      4.17%     79.17% # Class of executed instruction
system.cpu1.op_class::SimdFloatAlu                  0      0.00%     79.17% # Class of executed instruction
system.cpu1.op_class::SimdFloatCmp                  0      0.00%     79.17% # Class of executed instruction
system.cpu1.op_class::SimdFloatCvt                  2      8.33%     87.50% # Class of executed instruction
system.cpu1.op_class::SimdFloatDiv                  0      0.00%     87.50% # Class of executed instruction
system.cpu1.op_class::SimdFloatMisc                 0      0.00%     87.50% # Class of executed instruction
system.cpu1.op_class::SimdFloatMult                 1      4.17%     91.67% # Class of executed instruction
system.cpu1.op_class::SimdFloatMultAcc              0      0.00%     91.67% # Class of executed instruction
system.cpu1.op_class::SimdFloatSqrt                 0      0.00%     91.67% # Class of executed instruction
system.cpu1.op_class::SimdReduceAdd                 0      0.00%     91.67% # Class of executed instruction
system.cpu1.op_class::SimdReduceAlu                 0      0.00%     91.67% # Class of executed instruction
system.cpu1.op_class::SimdReduceCmp                 0      0.00%     91.67% # Class of executed instruction
system.cpu1.op_class::SimdFloatReduceAdd            0      0.00%     91.67% # Class of executed instruction
system.cpu1.op_class::SimdFloatReduceCmp            0      0.00%     91.67% # Class of executed instruction
system.cpu1.op_class::SimdAes                       0      0.00%     91.67% # Class of executed instruction
system.cpu1.op_class::SimdAesMix                    0      0.00%     91.67% # Class of executed instruction
system.cpu1.op_class::SimdSha1Hash                  0      0.00%     91.67% # Class of executed instruction
system.cpu1.op_class::SimdSha1Hash2                 0      0.00%     91.67% # Class of executed instruction
system.cpu1.op_class::SimdSha256Hash                0      0.00%     91.67% # Class of executed instruction
system.cpu1.op_class::SimdSha256Hash2               0      0.00%     91.67% # Class of executed instruction
system.cpu1.op_class::SimdShaSigma2                 0      0.00%     91.67% # Class of executed instruction
system.cpu1.op_class::SimdShaSigma3                 0      0.00%     91.67% # Class of executed instruction
system.cpu1.op_class::SimdPredAlu                   0      0.00%     91.67% # Class of executed instruction
system.cpu1.op_class::MemRead                       0      0.00%     91.67% # Class of executed instruction
system.cpu1.op_class::MemWrite                      0      0.00%     91.67% # Class of executed instruction
system.cpu1.op_class::FloatMemRead                  2      8.33%    100.00% # Class of executed instruction
system.cpu1.op_class::FloatMemWrite                 0      0.00%    100.00% # Class of executed instruction
system.cpu1.op_class::IprAccess                     0      0.00%    100.00% # Class of executed instruction
system.cpu1.op_class::InstPrefetch                  0      0.00%    100.00% # Class of executed instruction
system.cpu1.op_class::total                        24                       # Class of executed instruction
system.cpu1.workload.numSyscalls                    0                       # Number of system calls
system.cpu2.Branches                                3                       # Number of branches fetched
system.cpu2.committedInsts                         12                       # Number of instructions committed
system.cpu2.committedOps                           24                       # Number of ops (including micro ops) committed
system.cpu2.idle_fraction                           0                       # Percentage of idle cycles
system.cpu2.l2bus.snoop_filter.hit_multi_requests          294                       # Number of requests hitting in the snoop filter with multiple (>1) holders of the requested data.
system.cpu2.l2bus.snoop_filter.hit_multi_snoops            0                       # Number of snoops hitting in the snoop filter with multiple (>1) holders of the requested data.
system.cpu2.l2bus.snoop_filter.hit_single_requests      1788515                       # Number of requests hitting in the snoop filter with a single holder of the requested data.
system.cpu2.l2bus.snoop_filter.hit_single_snoops        22169                       # Number of snoops hitting in the snoop filter with a single holder of the requested data.
system.cpu2.l2bus.snoop_filter.tot_requests      3465522                       # Total number of requests made to the snoop filter.
system.cpu2.l2bus.snoop_filter.tot_snoops        22169                       # Total number of snoops made to the snoop filter.
system.cpu2.mmucache.mmubus.snoop_filter.hit_multi_requests            0                       # Number of requests hitting in the snoop filter with multiple (>1) holders of the requested data.
system.cpu2.mmucache.mmubus.snoop_filter.hit_multi_snoops            0                       # Number of snoops hitting in the snoop filter with multiple (>1) holders of the requested data.
system.cpu2.mmucache.mmubus.snoop_filter.hit_single_requests            0                       # Number of requests hitting in the snoop filter with a single holder of the requested data.
system.cpu2.mmucache.mmubus.snoop_filter.hit_single_snoops            0                       # Number of snoops hitting in the snoop filter with a single holder of the requested data.
system.cpu2.mmucache.mmubus.snoop_filter.tot_requests            0                       # Total number of requests made to the snoop filter.
system.cpu2.mmucache.mmubus.snoop_filter.tot_snoops            0                       # Total number of snoops made to the snoop filter.
system.cpu2.not_idle_fraction                       1                       # Percentage of non-idle cycles
system.cpu2.numCycles                              30                       # number of cpu cycles simulated
system.cpu2.numWorkItemsCompleted                   0                       # number of work items this cpu completed
system.cpu2.numWorkItemsStarted                     0                       # number of work items this cpu started
system.cpu2.num_busy_cycles                        30                       # Number of busy cycles
system.cpu2.num_cc_register_reads                  20                       # number of times the CC registers were read
system.cpu2.num_cc_register_writes                  6                       # number of times the CC registers were written
system.cpu2.num_conditional_control_insts            3                       # number of instructions that are conditional controls
system.cpu2.num_fp_alu_accesses                    14                       # Number of float alu accesses
system.cpu2.num_fp_insts                           14                       # number of float instructions
system.cpu2.num_fp_register_reads                  18                       # number of times the floating registers were read
system.cpu2.num_fp_register_writes                 12                       # number of times the floating registers were written
system.cpu2.num_func_calls                          0                       # number of times a function call or return occured
system.cpu2.num_idle_cycles                         0                       # Number of idle cycles
system.cpu2.num_int_alu_accesses                   12                       # Number of integer alu accesses
system.cpu2.num_int_insts                          12                       # number of integer instructions
system.cpu2.num_int_register_reads                 20                       # number of times the integer registers were read
system.cpu2.num_int_register_writes                 7                       # number of times the integer registers were written
system.cpu2.num_load_insts                          2                       # Number of load instructions
system.cpu2.num_mem_refs                            2                       # number of memory refs
system.cpu2.num_store_insts                         0                       # Number of store instructions
system.cpu2.num_vec_alu_accesses                    0                       # Number of vector alu accesses
system.cpu2.num_vec_insts                           0                       # number of vector instructions
system.cpu2.num_vec_register_reads                  0                       # number of times the vector registers were read
system.cpu2.num_vec_register_writes                 0                       # number of times the vector registers were written
system.cpu2.op_class::No_OpClass                    0      0.00%      0.00% # Class of executed instruction
system.cpu2.op_class::IntAlu                       14     58.33%     58.33% # Class of executed instruction
system.cpu2.op_class::IntMult                       0      0.00%     58.33% # Class of executed instruction
system.cpu2.op_class::IntDiv                        0      0.00%     58.33% # Class of executed instruction
system.cpu2.op_class::FloatAdd                      4     16.67%     75.00% # Class of executed instruction
system.cpu2.op_class::FloatCmp                      0      0.00%     75.00% # Class of executed instruction
system.cpu2.op_class::FloatCvt                      0      0.00%     75.00% # Class of executed instruction
system.cpu2.op_class::FloatMult                     0      0.00%     75.00% # Class of executed instruction
system.cpu2.op_class::FloatMultAcc                  0      0.00%     75.00% # Class of executed instruction
system.cpu2.op_class::FloatDiv                      0      0.00%     75.00% # Class of executed instruction
system.cpu2.op_class::FloatMisc                     0      0.00%     75.00% # Class of executed instruction
system.cpu2.op_class::FloatSqrt                     0      0.00%     75.00% # Class of executed instruction
system.cpu2.op_class::SimdAdd                       0      0.00%     75.00% # Class of executed instruction
system.cpu2.op_class::SimdAddAcc                    0      0.00%     75.00% # Class of executed instruction
system.cpu2.op_class::SimdAlu                       0      0.00%     75.00% # Class of executed instruction
system.cpu2.op_class::SimdCmp                       0      0.00%     75.00% # Class of executed instruction
system.cpu2.op_class::SimdCvt                       0      0.00%     75.00% # Class of executed instruction
system.cpu2.op_class::SimdMisc                      0      0.00%     75.00% # Class of executed instruction
system.cpu2.op_class::SimdMult                      0      0.00%     75.00% # Class of executed instruction
system.cpu2.op_class::SimdMultAcc                   0      0.00%     75.00% # Class of executed instruction
system.cpu2.op_class::SimdShift                     0      0.00%     75.00% # Class of executed instruction
system.cpu2.op_class::SimdShiftAcc                  0      0.00%     75.00% # Class of executed instruction
system.cpu2.op_class::SimdDiv                       0      0.00%     75.00% # Class of executed instruction
system.cpu2.op_class::SimdSqrt                      0      0.00%     75.00% # Class of executed instruction
system.cpu2.op_class::SimdFloatAdd                  1      4.17%     79.17% # Class of executed instruction
system.cpu2.op_class::SimdFloatAlu                  0      0.00%     79.17% # Class of executed instruction
system.cpu2.op_class::SimdFloatCmp                  0      0.00%     79.17% # Class of executed instruction
system.cpu2.op_class::SimdFloatCvt                  2      8.33%     87.50% # Class of executed instruction
system.cpu2.op_class::SimdFloatDiv                  0      0.00%     87.50% # Class of executed instruction
system.cpu2.op_class::SimdFloatMisc                 0      0.00%     87.50% # Class of executed instruction
system.cpu2.op_class::SimdFloatMult                 1      4.17%     91.67% # Class of executed instruction
system.cpu2.op_class::SimdFloatMultAcc              0      0.00%     91.67% # Class of executed instruction
system.cpu2.op_class::SimdFloatSqrt                 0      0.00%     91.67% # Class of executed instruction
system.cpu2.op_class::SimdReduceAdd                 0      0.00%     91.67% # Class of executed instruction
system.cpu2.op_class::SimdReduceAlu                 0      0.00%     91.67% # Class of executed instruction
system.cpu2.op_class::SimdReduceCmp                 0      0.00%     91.67% # Class of executed instruction
system.cpu2.op_class::SimdFloatReduceAdd            0      0.00%     91.67% # Class of executed instruction
system.cpu2.op_class::SimdFloatReduceCmp            0      0.00%     91.67% # Class of executed instruction
system.cpu2.op_class::SimdAes                       0      0.00%     91.67% # Class of executed instruction
system.cpu2.op_class::SimdAesMix                    0      0.00%     91.67% # Class of executed instruction
system.cpu2.op_class::SimdSha1Hash                  0      0.00%     91.67% # Class of executed instruction
system.cpu2.op_class::SimdSha1Hash2                 0      0.00%     91.67% # Class of executed instruction
system.cpu2.op_class::SimdSha256Hash                0      0.00%     91.67% # Class of executed instruction
system.cpu2.op_class::SimdSha256Hash2               0      0.00%     91.67% # Class of executed instruction
system.cpu2.op_class::SimdShaSigma2                 0      0.00%     91.67% # Class of executed instruction
system.cpu2.op_class::SimdShaSigma3                 0      0.00%     91.67% # Class of executed instruction
system.cpu2.op_class::SimdPredAlu                   0      0.00%     91.67% # Class of executed instruction
system.cpu2.op_class::MemRead                       0      0.00%     91.67% # Class of executed instruction
system.cpu2.op_class::MemWrite                      0      0.00%     91.67% # Class of executed instruction
system.cpu2.op_class::FloatMemRead                  2      8.33%    100.00% # Class of executed instruction
system.cpu2.op_class::FloatMemWrite                 0      0.00%    100.00% # Class of executed instruction
system.cpu2.op_class::IprAccess                     0      0.00%    100.00% # Class of executed instruction
system.cpu2.op_class::InstPrefetch                  0      0.00%    100.00% # Class of executed instruction
system.cpu2.op_class::total                        24                       # Class of executed instruction
system.cpu2.workload.numSyscalls                    0                       # Number of system calls
system.cpu3.Branches                                3                       # Number of branches fetched
system.cpu3.committedInsts                         12                       # Number of instructions committed
system.cpu3.committedOps                           24                       # Number of ops (including micro ops) committed
system.cpu3.idle_fraction                           0                       # Percentage of idle cycles
system.cpu3.l2bus.snoop_filter.hit_multi_requests          432                       # Number of requests hitting in the snoop filter with multiple (>1) holders of the requested data.
system.cpu3.l2bus.snoop_filter.hit_multi_snoops            0                       # Number of snoops hitting in the snoop filter with multiple (>1) holders of the requested data.
system.cpu3.l2bus.snoop_filter.hit_single_requests      1789388                       # Number of requests hitting in the snoop filter with a single holder of the requested data.
system.cpu3.l2bus.snoop_filter.hit_single_snoops        21940                       # Number of snoops hitting in the snoop filter with a single holder of the requested data.
system.cpu3.l2bus.snoop_filter.tot_requests      3467123                       # Total number of requests made to the snoop filter.
system.cpu3.l2bus.snoop_filter.tot_snoops        21940                       # Total number of snoops made to the snoop filter.
system.cpu3.mmucache.mmubus.snoop_filter.hit_multi_requests            0                       # Number of requests hitting in the snoop filter with multiple (>1) holders of the requested data.
system.cpu3.mmucache.mmubus.snoop_filter.hit_multi_snoops            0                       # Number of snoops hitting in the snoop filter with multiple (>1) holders of the requested data.
system.cpu3.mmucache.mmubus.snoop_filter.hit_single_requests            0                       # Number of requests hitting in the snoop filter with a single holder of the requested data.
system.cpu3.mmucache.mmubus.snoop_filter.hit_single_snoops            0                       # Number of snoops hitting in the snoop filter with a single holder of the requested data.
system.cpu3.mmucache.mmubus.snoop_filter.tot_requests            0                       # Total number of requests made to the snoop filter.
system.cpu3.mmucache.mmubus.snoop_filter.tot_snoops            0                       # Total number of snoops made to the snoop filter.
system.cpu3.not_idle_fraction                       1                       # Percentage of non-idle cycles
system.cpu3.numCycles                              30                       # number of cpu cycles simulated
system.cpu3.numWorkItemsCompleted                   0                       # number of work items this cpu completed
system.cpu3.numWorkItemsStarted                     0                       # number of work items this cpu started
system.cpu3.num_busy_cycles                        30                       # Number of busy cycles
system.cpu3.num_cc_register_reads                  20                       # number of times the CC registers were read
system.cpu3.num_cc_register_writes                  6                       # number of times the CC registers were written
system.cpu3.num_conditional_control_insts            3                       # number of instructions that are conditional controls
system.cpu3.num_fp_alu_accesses                    14                       # Number of float alu accesses
system.cpu3.num_fp_insts                           14                       # number of float instructions
system.cpu3.num_fp_register_reads                  18                       # number of times the floating registers were read
system.cpu3.num_fp_register_writes                 12                       # number of times the floating registers were written
system.cpu3.num_func_calls                          0                       # number of times a function call or return occured
system.cpu3.num_idle_cycles                         0                       # Number of idle cycles
system.cpu3.num_int_alu_accesses                   12                       # Number of integer alu accesses
system.cpu3.num_int_insts                          12                       # number of integer instructions
system.cpu3.num_int_register_reads                 20                       # number of times the integer registers were read
system.cpu3.num_int_register_writes                 7                       # number of times the integer registers were written
system.cpu3.num_load_insts                          2                       # Number of load instructions
system.cpu3.num_mem_refs                            2                       # number of memory refs
system.cpu3.num_store_insts                         0                       # Number of store instructions
system.cpu3.num_vec_alu_accesses                    0                       # Number of vector alu accesses
system.cpu3.num_vec_insts                           0                       # number of vector instructions
system.cpu3.num_vec_register_reads                  0                       # number of times the vector registers were read
system.cpu3.num_vec_register_writes                 0                       # number of times the vector registers were written
system.cpu3.op_class::No_OpClass                    0      0.00%      0.00% # Class of executed instruction
system.cpu3.op_class::IntAlu                       14     58.33%     58.33% # Class of executed instruction
system.cpu3.op_class::IntMult                       0      0.00%     58.33% # Class of executed instruction
system.cpu3.op_class::IntDiv                        0      0.00%     58.33% # Class of executed instruction
system.cpu3.op_class::FloatAdd                      4     16.67%     75.00% # Class of executed instruction
system.cpu3.op_class::FloatCmp                      0      0.00%     75.00% # Class of executed instruction
system.cpu3.op_class::FloatCvt                      0      0.00%     75.00% # Class of executed instruction
system.cpu3.op_class::FloatMult                     0      0.00%     75.00% # Class of executed instruction
system.cpu3.op_class::FloatMultAcc                  0      0.00%     75.00% # Class of executed instruction
system.cpu3.op_class::FloatDiv                      0      0.00%     75.00% # Class of executed instruction
system.cpu3.op_class::FloatMisc                     0      0.00%     75.00% # Class of executed instruction
system.cpu3.op_class::FloatSqrt                     0      0.00%     75.00% # Class of executed instruction
system.cpu3.op_class::SimdAdd                       0      0.00%     75.00% # Class of executed instruction
system.cpu3.op_class::SimdAddAcc                    0      0.00%     75.00% # Class of executed instruction
system.cpu3.op_class::SimdAlu                       0      0.00%     75.00% # Class of executed instruction
system.cpu3.op_class::SimdCmp                       0      0.00%     75.00% # Class of executed instruction
system.cpu3.op_class::SimdCvt                       0      0.00%     75.00% # Class of executed instruction
system.cpu3.op_class::SimdMisc                      0      0.00%     75.00% # Class of executed instruction
system.cpu3.op_class::SimdMult                      0      0.00%     75.00% # Class of executed instruction
system.cpu3.op_class::SimdMultAcc                   0      0.00%     75.00% # Class of executed instruction
system.cpu3.op_class::SimdShift                     0      0.00%     75.00% # Class of executed instruction
system.cpu3.op_class::SimdShiftAcc                  0      0.00%     75.00% # Class of executed instruction
system.cpu3.op_class::SimdDiv                       0      0.00%     75.00% # Class of executed instruction
system.cpu3.op_class::SimdSqrt                      0      0.00%     75.00% # Class of executed instruction
system.cpu3.op_class::SimdFloatAdd                  1      4.17%     79.17% # Class of executed instruction
system.cpu3.op_class::SimdFloatAlu                  0      0.00%     79.17% # Class of executed instruction
system.cpu3.op_class::SimdFloatCmp                  0      0.00%     79.17% # Class of executed instruction
system.cpu3.op_class::SimdFloatCvt                  2      8.33%     87.50% # Class of executed instruction
system.cpu3.op_class::SimdFloatDiv                  0      0.00%     87.50% # Class of executed instruction
system.cpu3.op_class::SimdFloatMisc                 0      0.00%     87.50% # Class of executed instruction
system.cpu3.op_class::SimdFloatMult                 1      4.17%     91.67% # Class of executed instruction
system.cpu3.op_class::SimdFloatMultAcc              0      0.00%     91.67% # Class of executed instruction
system.cpu3.op_class::SimdFloatSqrt                 0      0.00%     91.67% # Class of executed instruction
system.cpu3.op_class::SimdReduceAdd                 0      0.00%     91.67% # Class of executed instruction
system.cpu3.op_class::SimdReduceAlu                 0      0.00%     91.67% # Class of executed instruction
system.cpu3.op_class::SimdReduceCmp                 0      0.00%     91.67% # Class of executed instruction
system.cpu3.op_class::SimdFloatReduceAdd            0      0.00%     91.67% # Class of executed instruction
system.cpu3.op_class::SimdFloatReduceCmp            0      0.00%     91.67% # Class of executed instruction
system.cpu3.op_class::SimdAes                       0      0.00%     91.67% # Class of executed instruction
system.cpu3.op_class::SimdAesMix                    0      0.00%     91.67% # Class of executed instruction
system.cpu3.op_class::SimdSha1Hash                  0      0.00%     91.67% # Class of executed instruction
system.cpu3.op_class::SimdSha1Hash2                 0      0.00%     91.67% # Class of executed instruction
system.cpu3.op_class::SimdSha256Hash                0      0.00%     91.67% # Class of executed instruction
system.cpu3.op_class::SimdSha256Hash2               0      0.00%     91.67% # Class of executed instruction
system.cpu3.op_class::SimdShaSigma2                 0      0.00%     91.67% # Class of executed instruction
system.cpu3.op_class::SimdShaSigma3                 0      0.00%     91.67% # Class of executed instruction
system.cpu3.op_class::SimdPredAlu                   0      0.00%     91.67% # Class of executed instruction
system.cpu3.op_class::MemRead                       0      0.00%     91.67% # Class of executed instruction
system.cpu3.op_class::MemWrite                      0      0.00%     91.67% # Class of executed instruction
system.cpu3.op_class::FloatMemRead                  2      8.33%    100.00% # Class of executed instruction
system.cpu3.op_class::FloatMemWrite                 0      0.00%    100.00% # Class of executed instruction
system.cpu3.op_class::IprAccess                     0      0.00%    100.00% # Class of executed instruction
system.cpu3.op_class::InstPrefetch                  0      0.00%    100.00% # Class of executed instruction
system.cpu3.op_class::total                        24                       # Class of executed instruction
system.cpu3.workload.numSyscalls                    0                       # Number of system calls
system.l3bus.snoop_filter.hit_multi_requests            0                       # Number of requests hitting in the snoop filter with multiple (>1) holders of the requested data.
system.l3bus.snoop_filter.hit_multi_snoops            0                       # Number of snoops hitting in the snoop filter with multiple (>1) holders of the requested data.
system.l3bus.snoop_filter.hit_single_requests      4740233                       # Number of requests hitting in the snoop filter with a single holder of the requested data.
system.l3bus.snoop_filter.hit_single_snoops            0                       # Number of snoops hitting in the snoop filter with a single holder of the requested data.
system.l3bus.snoop_filter.tot_requests        9498424                       # Total number of requests made to the snoop filter.
system.l3bus.snoop_filter.tot_snoops                0                       # Total number of snoops made to the snoop filter.
system.membus.snoop_filter.hit_multi_requests            0                       # Number of requests hitting in the snoop filter with multiple (>1) holders of the requested data.
system.membus.snoop_filter.hit_multi_snoops            0                       # Number of snoops hitting in the snoop filter with multiple (>1) holders of the requested data.
system.membus.snoop_filter.hit_single_requests       897571                       # Number of requests hitting in the snoop filter with a single holder of the requested data.
system.membus.snoop_filter.hit_single_snoops            0                       # Number of snoops hitting in the snoop filter with a single holder of the requested data.
system.membus.snoop_filter.tot_requests       1871667                       # Total number of requests made to the snoop filter.
system.membus.snoop_filter.tot_snoops               0                       # Total number of snoops made to the snoop filter.
system.switch_cpus0.cc_regfile_reads        193107213                       # number of cc regfile reads
system.switch_cpus0.cc_regfile_writes       110353453                       # number of cc regfile writes
system.switch_cpus0.committedInsts          249887099                       # Number of Instructions Simulated
system.switch_cpus0.committedOps            456238712                       # Number of Ops (including micro ops) Simulated
system.switch_cpus0.cpi                      0.694049                       # CPI: Cycles Per Instruction
system.switch_cpus0.cpi_total                0.694049                       # CPI: Total CPI of All Threads
system.switch_cpus0.fp_regfile_reads        309313812                       # number of floating regfile reads
system.switch_cpus0.fp_regfile_writes       225709703                       # number of floating regfile writes
system.switch_cpus0.idleCycles                 534140                       # Total number of cycles that the CPU has spent unscheduled due to idling
system.switch_cpus0.iew.branchMispredicts       619529                       # Number of branch mispredicts detected at execute
system.switch_cpus0.iew.exec_branches        34842869                       # Number of branches executed
system.switch_cpus0.iew.exec_nop                    0                       # number of nop insts executed
system.switch_cpus0.iew.exec_rate            2.830069                       # Inst execution rate
system.switch_cpus0.iew.exec_refs           107700348                       # number of memory reference insts executed
system.switch_cpus0.iew.exec_stores          30551545                       # Number of stores executed
system.switch_cpus0.iew.exec_swp                    0                       # number of swp insts executed
system.switch_cpus0.iew.iewBlockCycles       21756811                       # Number of cycles IEW is blocking
system.switch_cpus0.iew.iewDispLoadInsts     77032557                       # Number of dispatched load instructions
system.switch_cpus0.iew.iewDispNonSpecInsts         2129                       # Number of dispatched non-speculative instructions
system.switch_cpus0.iew.iewDispSquashedInsts        14145                       # Number of squashed instructions skipped by dispatch
system.switch_cpus0.iew.iewDispStoreInsts     32716815                       # Number of dispatched store instructions
system.switch_cpus0.iew.iewDispatchedInsts    500042504                       # Number of instructions dispatched to IQ
system.switch_cpus0.iew.iewExecLoadInsts     77148803                       # Number of load instructions executed
system.switch_cpus0.iew.iewExecSquashedInsts      2038978                       # Number of squashed instructions skipped in execute
system.switch_cpus0.iew.iewExecutedInsts    490829604                       # Number of executed instructions
system.switch_cpus0.iew.iewIQFullEvents        169779                       # Number of times the IQ has become full, causing a stall
system.switch_cpus0.iew.iewIdleCycles               0                       # Number of cycles IEW is idle
system.switch_cpus0.iew.iewLSQFullEvents      6605367                       # Number of times the LSQ has become full, causing a stall
system.switch_cpus0.iew.iewSquashCycles        724495                       # Number of cycles IEW is squashing
system.switch_cpus0.iew.iewUnblockCycles      6827289                       # Number of cycles IEW is unblocking
system.switch_cpus0.iew.memOrderViolationEvents        10871                       # Number of memory order violations
system.switch_cpus0.iew.predictedNotTakenIncorrect       226525                       # Number of branches that were predicted not taken incorrectly
system.switch_cpus0.iew.predictedTakenIncorrect       393004                       # Number of branches that were predicted taken incorrectly
system.switch_cpus0.iew.wb_consumers        536511314                       # num instructions consuming a value
system.switch_cpus0.iew.wb_count            487431577                       # cumulative count of insts written-back
system.switch_cpus0.iew.wb_fanout            0.600143                       # average fanout of values written-back
system.switch_cpus0.iew.wb_producers        321983247                       # num instructions producing a value
system.switch_cpus0.iew.wb_rate              2.810476                       # insts written-back per cycle
system.switch_cpus0.iew.wb_sent             489317354                       # cumulative count of insts sent to commit
system.switch_cpus0.int_regfile_reads       419868850                       # number of integer regfile reads
system.switch_cpus0.int_regfile_writes      182827988                       # number of integer regfile writes
system.switch_cpus0.ipc                      1.440821                       # IPC: Instructions Per Cycle
system.switch_cpus0.ipc_total                1.440821                       # IPC: Total IPC of All Threads
system.switch_cpus0.iq.FU_type_0::No_OpClass      1570877      0.32%      0.32% # Type of FU issued
system.switch_cpus0.iq.FU_type_0::IntAlu    222852739     45.22%     45.53% # Type of FU issued
system.switch_cpus0.iq.FU_type_0::IntMult        11448      0.00%     45.54% # Type of FU issued
system.switch_cpus0.iq.FU_type_0::IntDiv            0      0.00%     45.54% # Type of FU issued
system.switch_cpus0.iq.FU_type_0::FloatAdd     68831505     13.97%     59.50% # Type of FU issued
system.switch_cpus0.iq.FU_type_0::FloatCmp            0      0.00%     59.50% # Type of FU issued
system.switch_cpus0.iq.FU_type_0::FloatCvt            0      0.00%     59.50% # Type of FU issued
system.switch_cpus0.iq.FU_type_0::FloatMult            0      0.00%     59.50% # Type of FU issued
system.switch_cpus0.iq.FU_type_0::FloatMultAcc            0      0.00%     59.50% # Type of FU issued
system.switch_cpus0.iq.FU_type_0::FloatDiv            0      0.00%     59.50% # Type of FU issued
system.switch_cpus0.iq.FU_type_0::FloatMisc            0      0.00%     59.50% # Type of FU issued
system.switch_cpus0.iq.FU_type_0::FloatSqrt            0      0.00%     59.50% # Type of FU issued
system.switch_cpus0.iq.FU_type_0::SimdAdd            0      0.00%     59.50% # Type of FU issued
system.switch_cpus0.iq.FU_type_0::SimdAddAcc            0      0.00%     59.50% # Type of FU issued
system.switch_cpus0.iq.FU_type_0::SimdAlu      9242094      1.88%     61.38% # Type of FU issued
system.switch_cpus0.iq.FU_type_0::SimdCmp            0      0.00%     61.38% # Type of FU issued
system.switch_cpus0.iq.FU_type_0::SimdCvt            0      0.00%     61.38% # Type of FU issued
system.switch_cpus0.iq.FU_type_0::SimdMisc      5714947      1.16%     62.54% # Type of FU issued
system.switch_cpus0.iq.FU_type_0::SimdMult            0      0.00%     62.54% # Type of FU issued
system.switch_cpus0.iq.FU_type_0::SimdMultAcc            0      0.00%     62.54% # Type of FU issued
system.switch_cpus0.iq.FU_type_0::SimdShift            0      0.00%     62.54% # Type of FU issued
system.switch_cpus0.iq.FU_type_0::SimdShiftAcc            0      0.00%     62.54% # Type of FU issued
system.switch_cpus0.iq.FU_type_0::SimdDiv            0      0.00%     62.54% # Type of FU issued
system.switch_cpus0.iq.FU_type_0::SimdSqrt            0      0.00%     62.54% # Type of FU issued
system.switch_cpus0.iq.FU_type_0::SimdFloatAdd     23841696      4.84%     67.37% # Type of FU issued
system.switch_cpus0.iq.FU_type_0::SimdFloatAlu            0      0.00%     67.37% # Type of FU issued
system.switch_cpus0.iq.FU_type_0::SimdFloatCmp       652195      0.13%     67.51% # Type of FU issued
system.switch_cpus0.iq.FU_type_0::SimdFloatCvt     18089007      3.67%     71.18% # Type of FU issued
system.switch_cpus0.iq.FU_type_0::SimdFloatDiv      5720747      1.16%     72.34% # Type of FU issued
system.switch_cpus0.iq.FU_type_0::SimdFloatMisc            0      0.00%     72.34% # Type of FU issued
system.switch_cpus0.iq.FU_type_0::SimdFloatMult     27062136      5.49%     77.83% # Type of FU issued
system.switch_cpus0.iq.FU_type_0::SimdFloatMultAcc            0      0.00%     77.83% # Type of FU issued
system.switch_cpus0.iq.FU_type_0::SimdFloatSqrt      1016275      0.21%     78.03% # Type of FU issued
system.switch_cpus0.iq.FU_type_0::SimdReduceAdd            0      0.00%     78.03% # Type of FU issued
system.switch_cpus0.iq.FU_type_0::SimdReduceAlu            0      0.00%     78.03% # Type of FU issued
system.switch_cpus0.iq.FU_type_0::SimdReduceCmp            0      0.00%     78.03% # Type of FU issued
system.switch_cpus0.iq.FU_type_0::SimdFloatReduceAdd            0      0.00%     78.03% # Type of FU issued
system.switch_cpus0.iq.FU_type_0::SimdFloatReduceCmp            0      0.00%     78.03% # Type of FU issued
system.switch_cpus0.iq.FU_type_0::SimdAes            0      0.00%     78.03% # Type of FU issued
system.switch_cpus0.iq.FU_type_0::SimdAesMix            0      0.00%     78.03% # Type of FU issued
system.switch_cpus0.iq.FU_type_0::SimdSha1Hash            0      0.00%     78.03% # Type of FU issued
system.switch_cpus0.iq.FU_type_0::SimdSha1Hash2            0      0.00%     78.03% # Type of FU issued
system.switch_cpus0.iq.FU_type_0::SimdSha256Hash            0      0.00%     78.03% # Type of FU issued
system.switch_cpus0.iq.FU_type_0::SimdSha256Hash2            0      0.00%     78.03% # Type of FU issued
system.switch_cpus0.iq.FU_type_0::SimdShaSigma2            0      0.00%     78.03% # Type of FU issued
system.switch_cpus0.iq.FU_type_0::SimdShaSigma3            0      0.00%     78.03% # Type of FU issued
system.switch_cpus0.iq.FU_type_0::SimdPredAlu            0      0.00%     78.03% # Type of FU issued
system.switch_cpus0.iq.FU_type_0::MemRead     17033824      3.46%     81.49% # Type of FU issued
system.switch_cpus0.iq.FU_type_0::MemWrite      7987329      1.62%     83.11% # Type of FU issued
system.switch_cpus0.iq.FU_type_0::FloatMemRead     60557674     12.29%     95.40% # Type of FU issued
system.switch_cpus0.iq.FU_type_0::FloatMemWrite     22684089      4.60%    100.00% # Type of FU issued
system.switch_cpus0.iq.FU_type_0::IprAccess            0      0.00%    100.00% # Type of FU issued
system.switch_cpus0.iq.FU_type_0::InstPrefetch            0      0.00%    100.00% # Type of FU issued
system.switch_cpus0.iq.FU_type_0::total     492868582                       # Type of FU issued
system.switch_cpus0.iq.fp_alu_accesses      272160692                       # Number of floating point alu accesses
system.switch_cpus0.iq.fp_inst_queue_reads    541848168                       # Number of floating instruction queue reads
system.switch_cpus0.iq.fp_inst_queue_wakeup_accesses    266652625                       # Number of floating instruction queue wakeup accesses
system.switch_cpus0.iq.fp_inst_queue_writes    294677776                       # Number of floating instruction queue writes
system.switch_cpus0.iq.fu_busy_cnt            4772521                       # FU busy when requested
system.switch_cpus0.iq.fu_busy_rate          0.009683                       # FU busy rate (busy events/executed inst)
system.switch_cpus0.iq.fu_full::No_OpClass            0      0.00%      0.00% # attempts to use FU when none available
system.switch_cpus0.iq.fu_full::IntAlu        1329600     27.86%     27.86% # attempts to use FU when none available
system.switch_cpus0.iq.fu_full::IntMult             0      0.00%     27.86% # attempts to use FU when none available
system.switch_cpus0.iq.fu_full::IntDiv              0      0.00%     27.86% # attempts to use FU when none available
system.switch_cpus0.iq.fu_full::FloatAdd        94222      1.97%     29.83% # attempts to use FU when none available
system.switch_cpus0.iq.fu_full::FloatCmp            0      0.00%     29.83% # attempts to use FU when none available
system.switch_cpus0.iq.fu_full::FloatCvt            0      0.00%     29.83% # attempts to use FU when none available
system.switch_cpus0.iq.fu_full::FloatMult            0      0.00%     29.83% # attempts to use FU when none available
system.switch_cpus0.iq.fu_full::FloatMultAcc            0      0.00%     29.83% # attempts to use FU when none available
system.switch_cpus0.iq.fu_full::FloatDiv            0      0.00%     29.83% # attempts to use FU when none available
system.switch_cpus0.iq.fu_full::FloatMisc            0      0.00%     29.83% # attempts to use FU when none available
system.switch_cpus0.iq.fu_full::FloatSqrt            0      0.00%     29.83% # attempts to use FU when none available
system.switch_cpus0.iq.fu_full::SimdAdd             0      0.00%     29.83% # attempts to use FU when none available
system.switch_cpus0.iq.fu_full::SimdAddAcc            0      0.00%     29.83% # attempts to use FU when none available
system.switch_cpus0.iq.fu_full::SimdAlu        191588      4.01%     33.85% # attempts to use FU when none available
system.switch_cpus0.iq.fu_full::SimdCmp             0      0.00%     33.85% # attempts to use FU when none available
system.switch_cpus0.iq.fu_full::SimdCvt             0      0.00%     33.85% # attempts to use FU when none available
system.switch_cpus0.iq.fu_full::SimdMisc        26712      0.56%     34.41% # attempts to use FU when none available
system.switch_cpus0.iq.fu_full::SimdMult            0      0.00%     34.41% # attempts to use FU when none available
system.switch_cpus0.iq.fu_full::SimdMultAcc            0      0.00%     34.41% # attempts to use FU when none available
system.switch_cpus0.iq.fu_full::SimdShift            0      0.00%     34.41% # attempts to use FU when none available
system.switch_cpus0.iq.fu_full::SimdShiftAcc            0      0.00%     34.41% # attempts to use FU when none available
system.switch_cpus0.iq.fu_full::SimdDiv             0      0.00%     34.41% # attempts to use FU when none available
system.switch_cpus0.iq.fu_full::SimdSqrt            0      0.00%     34.41% # attempts to use FU when none available
system.switch_cpus0.iq.fu_full::SimdFloatAdd        89723      1.88%     36.29% # attempts to use FU when none available
system.switch_cpus0.iq.fu_full::SimdFloatAlu            0      0.00%     36.29% # attempts to use FU when none available
system.switch_cpus0.iq.fu_full::SimdFloatCmp            3      0.00%     36.29% # attempts to use FU when none available
system.switch_cpus0.iq.fu_full::SimdFloatCvt       141204      2.96%     39.25% # attempts to use FU when none available
system.switch_cpus0.iq.fu_full::SimdFloatDiv        14929      0.31%     39.56% # attempts to use FU when none available
system.switch_cpus0.iq.fu_full::SimdFloatMisc            0      0.00%     39.56% # attempts to use FU when none available
system.switch_cpus0.iq.fu_full::SimdFloatMult        93280      1.95%     41.51% # attempts to use FU when none available
system.switch_cpus0.iq.fu_full::SimdFloatMultAcc            0      0.00%     41.51% # attempts to use FU when none available
system.switch_cpus0.iq.fu_full::SimdFloatSqrt         1000      0.02%     41.53% # attempts to use FU when none available
system.switch_cpus0.iq.fu_full::SimdReduceAdd            0      0.00%     41.53% # attempts to use FU when none available
system.switch_cpus0.iq.fu_full::SimdReduceAlu            0      0.00%     41.53% # attempts to use FU when none available
system.switch_cpus0.iq.fu_full::SimdReduceCmp            0      0.00%     41.53% # attempts to use FU when none available
system.switch_cpus0.iq.fu_full::SimdFloatReduceAdd            0      0.00%     41.53% # attempts to use FU when none available
system.switch_cpus0.iq.fu_full::SimdFloatReduceCmp            0      0.00%     41.53% # attempts to use FU when none available
system.switch_cpus0.iq.fu_full::SimdAes             0      0.00%     41.53% # attempts to use FU when none available
system.switch_cpus0.iq.fu_full::SimdAesMix            0      0.00%     41.53% # attempts to use FU when none available
system.switch_cpus0.iq.fu_full::SimdSha1Hash            0      0.00%     41.53% # attempts to use FU when none available
system.switch_cpus0.iq.fu_full::SimdSha1Hash2            0      0.00%     41.53% # attempts to use FU when none available
system.switch_cpus0.iq.fu_full::SimdSha256Hash            0      0.00%     41.53% # attempts to use FU when none available
system.switch_cpus0.iq.fu_full::SimdSha256Hash2            0      0.00%     41.53% # attempts to use FU when none available
system.switch_cpus0.iq.fu_full::SimdShaSigma2            0      0.00%     41.53% # attempts to use FU when none available
system.switch_cpus0.iq.fu_full::SimdShaSigma3            0      0.00%     41.53% # attempts to use FU when none available
system.switch_cpus0.iq.fu_full::SimdPredAlu            0      0.00%     41.53% # attempts to use FU when none available
system.switch_cpus0.iq.fu_full::MemRead        399012      8.36%     49.90% # attempts to use FU when none available
system.switch_cpus0.iq.fu_full::MemWrite       650511     13.63%     63.53% # attempts to use FU when none available
system.switch_cpus0.iq.fu_full::FloatMemRead      1107173     23.20%     86.72% # attempts to use FU when none available
system.switch_cpus0.iq.fu_full::FloatMemWrite       633564     13.28%    100.00% # attempts to use FU when none available
system.switch_cpus0.iq.fu_full::IprAccess            0      0.00%    100.00% # attempts to use FU when none available
system.switch_cpus0.iq.fu_full::InstPrefetch            0      0.00%    100.00% # attempts to use FU when none available
system.switch_cpus0.iq.int_alu_accesses     223909534                       # Number of integer alu accesses
system.switch_cpus0.iq.int_inst_queue_reads    621811804                       # Number of integer instruction queue reads
system.switch_cpus0.iq.int_inst_queue_wakeup_accesses    220778952                       # Number of integer instruction queue wakeup accesses
system.switch_cpus0.iq.int_inst_queue_writes    249179133                       # Number of integer instruction queue writes
system.switch_cpus0.iq.iqInstsAdded         499915186                       # Number of instructions added to the IQ (excludes non-spec)
system.switch_cpus0.iq.iqInstsIssued        492868582                       # Number of instructions issued
system.switch_cpus0.iq.iqNonSpecInstsAdded       127318                       # Number of non-speculative instructions added to the IQ
system.switch_cpus0.iq.iqSquashedInstsExamined     43803744                       # Number of squashed instructions iterated over during squash; mainly for profiling
system.switch_cpus0.iq.iqSquashedInstsIssued       250625                       # Number of squashed instructions issued
system.switch_cpus0.iq.iqSquashedNonSpecRemoved       114454                       # Number of squashed non-spec instructions that were removed
system.switch_cpus0.iq.iqSquashedOperandsExamined     36355471                       # Number of squashed operands that are examined and possibly removed from graph
system.switch_cpus0.iq.issued_per_cycle::samples    172899662                       # Number of insts issued each cycle
system.switch_cpus0.iq.issued_per_cycle::mean     2.850605                       # Number of insts issued each cycle
system.switch_cpus0.iq.issued_per_cycle::stdev     3.028908                       # Number of insts issued each cycle
system.switch_cpus0.iq.issued_per_cycle::underflows            0      0.00%      0.00% # Number of insts issued each cycle
system.switch_cpus0.iq.issued_per_cycle::0     74204577     42.92%     42.92% # Number of insts issued each cycle
system.switch_cpus0.iq.issued_per_cycle::1      8719349      5.04%     47.96% # Number of insts issued each cycle
system.switch_cpus0.iq.issued_per_cycle::2      9875352      5.71%     53.67% # Number of insts issued each cycle
system.switch_cpus0.iq.issued_per_cycle::3     11288572      6.53%     60.20% # Number of insts issued each cycle
system.switch_cpus0.iq.issued_per_cycle::4     11577004      6.70%     66.90% # Number of insts issued each cycle
system.switch_cpus0.iq.issued_per_cycle::5     12356206      7.15%     74.04% # Number of insts issued each cycle
system.switch_cpus0.iq.issued_per_cycle::6     11896818      6.88%     80.92% # Number of insts issued each cycle
system.switch_cpus0.iq.issued_per_cycle::7     12791413      7.40%     88.32% # Number of insts issued each cycle
system.switch_cpus0.iq.issued_per_cycle::8     20190371     11.68%    100.00% # Number of insts issued each cycle
system.switch_cpus0.iq.issued_per_cycle::overflows            0      0.00%    100.00% # Number of insts issued each cycle
system.switch_cpus0.iq.issued_per_cycle::min_value            0                       # Number of insts issued each cycle
system.switch_cpus0.iq.issued_per_cycle::max_value            8                       # Number of insts issued each cycle
system.switch_cpus0.iq.issued_per_cycle::total    172899662                       # Number of insts issued each cycle
system.switch_cpus0.iq.rate                  2.841825                       # Inst issue rate
system.switch_cpus0.iq.vec_alu_accesses             0                       # Number of vector alu accesses
system.switch_cpus0.iq.vec_inst_queue_reads            0                       # Number of vector instruction queue reads
system.switch_cpus0.iq.vec_inst_queue_wakeup_accesses            0                       # Number of vector instruction queue wakeup accesses
system.switch_cpus0.iq.vec_inst_queue_writes            0                       # Number of vector instruction queue writes
system.switch_cpus0.memDep0.conflictingLoads      3515007                       # Number of conflicting loads.
system.switch_cpus0.memDep0.conflictingStores      3347097                       # Number of conflicting stores.
system.switch_cpus0.memDep0.insertedLoads     77032557                       # Number of loads inserted to the mem dependence unit.
system.switch_cpus0.memDep0.insertedStores     32716815                       # Number of stores inserted to the mem dependence unit.
system.switch_cpus0.misc_regfile_reads      194599628                       # number of misc regfile reads
system.switch_cpus0.misc_regfile_writes             1                       # number of misc regfile writes
system.switch_cpus0.numCycles               173433802                       # number of cpu cycles simulated
system.switch_cpus0.numWorkItemsCompleted            0                       # number of work items this cpu completed
system.switch_cpus0.numWorkItemsStarted             0                       # number of work items this cpu started
system.switch_cpus0.timesIdled                  12025                       # Number of times that the entire CPU went into an idle state and unscheduled itself
system.switch_cpus1.cc_regfile_reads        193108134                       # number of cc regfile reads
system.switch_cpus1.cc_regfile_writes       110356991                       # number of cc regfile writes
system.switch_cpus1.committedInsts          249886533                       # Number of Instructions Simulated
system.switch_cpus1.committedOps            456237866                       # Number of Ops (including micro ops) Simulated
system.switch_cpus1.cpi                      0.694050                       # CPI: Cycles Per Instruction
system.switch_cpus1.cpi_total                0.694050                       # CPI: Total CPI of All Threads
system.switch_cpus1.fp_regfile_reads        309314093                       # number of floating regfile reads
system.switch_cpus1.fp_regfile_writes       225712157                       # number of floating regfile writes
system.switch_cpus1.idleCycles                 528193                       # Total number of cycles that the CPU has spent unscheduled due to idling
system.switch_cpus1.iew.branchMispredicts       619622                       # Number of branch mispredicts detected at execute
system.switch_cpus1.iew.exec_branches        34843465                       # Number of branches executed
system.switch_cpus1.iew.exec_nop                    0                       # number of nop insts executed
system.switch_cpus1.iew.exec_rate            2.830149                       # Inst execution rate
system.switch_cpus1.iew.exec_refs           107705866                       # number of memory reference insts executed
system.switch_cpus1.iew.exec_stores          30552514                       # Number of stores executed
system.switch_cpus1.iew.exec_swp                    0                       # number of swp insts executed
system.switch_cpus1.iew.iewBlockCycles       21634646                       # Number of cycles IEW is blocking
system.switch_cpus1.iew.iewDispLoadInsts     77039159                       # Number of dispatched load instructions
system.switch_cpus1.iew.iewDispNonSpecInsts         2121                       # Number of dispatched non-speculative instructions
system.switch_cpus1.iew.iewDispSquashedInsts        14160                       # Number of squashed instructions skipped by dispatch
system.switch_cpus1.iew.iewDispStoreInsts     32721553                       # Number of dispatched store instructions
system.switch_cpus1.iew.iewDispatchedInsts    500067346                       # Number of instructions dispatched to IQ
system.switch_cpus1.iew.iewExecLoadInsts     77153352                       # Number of load instructions executed
system.switch_cpus1.iew.iewExecSquashedInsts      2040430                       # Number of squashed instructions skipped in execute
system.switch_cpus1.iew.iewExecutedInsts    490843440                       # Number of executed instructions
system.switch_cpus1.iew.iewIQFullEvents        169554                       # Number of times the IQ has become full, causing a stall
system.switch_cpus1.iew.iewIdleCycles               0                       # Number of cycles IEW is idle
system.switch_cpus1.iew.iewLSQFullEvents      6615991                       # Number of times the LSQ has become full, causing a stall
system.switch_cpus1.iew.iewSquashCycles        724653                       # Number of cycles IEW is squashing
system.switch_cpus1.iew.iewUnblockCycles      6837694                       # Number of cycles IEW is unblocking
system.switch_cpus1.iew.memOrderViolationEvents        10872                       # Number of memory order violations
system.switch_cpus1.iew.predictedNotTakenIncorrect       226625                       # Number of branches that were predicted not taken incorrectly
system.switch_cpus1.iew.predictedTakenIncorrect       392997                       # Number of branches that were predicted taken incorrectly
system.switch_cpus1.iew.wb_consumers        536532959                       # num instructions consuming a value
system.switch_cpus1.iew.wb_count            487444363                       # cumulative count of insts written-back
system.switch_cpus1.iew.wb_fanout            0.600146                       # average fanout of values written-back
system.switch_cpus1.iew.wb_producers        321997841                       # num instructions producing a value
system.switch_cpus1.iew.wb_rate              2.810550                       # insts written-back per cycle
system.switch_cpus1.iew.wb_sent             489330461                       # cumulative count of insts sent to commit
system.switch_cpus1.int_regfile_reads       419888994                       # number of integer regfile reads
system.switch_cpus1.int_regfile_writes      182836667                       # number of integer regfile writes
system.switch_cpus1.ipc                      1.440818                       # IPC: Instructions Per Cycle
system.switch_cpus1.ipc_total                1.440818                       # IPC: Total IPC of All Threads
system.switch_cpus1.iq.FU_type_0::No_OpClass      1570992      0.32%      0.32% # Type of FU issued
system.switch_cpus1.iq.FU_type_0::IntAlu    222858593     45.22%     45.53% # Type of FU issued
system.switch_cpus1.iq.FU_type_0::IntMult        11420      0.00%     45.54% # Type of FU issued
system.switch_cpus1.iq.FU_type_0::IntDiv            0      0.00%     45.54% # Type of FU issued
system.switch_cpus1.iq.FU_type_0::FloatAdd     68833680     13.97%     59.50% # Type of FU issued
system.switch_cpus1.iq.FU_type_0::FloatCmp            0      0.00%     59.50% # Type of FU issued
system.switch_cpus1.iq.FU_type_0::FloatCvt            0      0.00%     59.50% # Type of FU issued
system.switch_cpus1.iq.FU_type_0::FloatMult            0      0.00%     59.50% # Type of FU issued
system.switch_cpus1.iq.FU_type_0::FloatMultAcc            0      0.00%     59.50% # Type of FU issued
system.switch_cpus1.iq.FU_type_0::FloatDiv            0      0.00%     59.50% # Type of FU issued
system.switch_cpus1.iq.FU_type_0::FloatMisc            0      0.00%     59.50% # Type of FU issued
system.switch_cpus1.iq.FU_type_0::FloatSqrt            0      0.00%     59.50% # Type of FU issued
system.switch_cpus1.iq.FU_type_0::SimdAdd            0      0.00%     59.50% # Type of FU issued
system.switch_cpus1.iq.FU_type_0::SimdAddAcc            0      0.00%     59.50% # Type of FU issued
system.switch_cpus1.iq.FU_type_0::SimdAlu      9242445      1.88%     61.38% # Type of FU issued
system.switch_cpus1.iq.FU_type_0::SimdCmp            0      0.00%     61.38% # Type of FU issued
system.switch_cpus1.iq.FU_type_0::SimdCvt            0      0.00%     61.38% # Type of FU issued
system.switch_cpus1.iq.FU_type_0::SimdMisc      5715473      1.16%     62.54% # Type of FU issued
system.switch_cpus1.iq.FU_type_0::SimdMult            0      0.00%     62.54% # Type of FU issued
system.switch_cpus1.iq.FU_type_0::SimdMultAcc            0      0.00%     62.54% # Type of FU issued
system.switch_cpus1.iq.FU_type_0::SimdShift            0      0.00%     62.54% # Type of FU issued
system.switch_cpus1.iq.FU_type_0::SimdShiftAcc            0      0.00%     62.54% # Type of FU issued
system.switch_cpus1.iq.FU_type_0::SimdDiv            0      0.00%     62.54% # Type of FU issued
system.switch_cpus1.iq.FU_type_0::SimdSqrt            0      0.00%     62.54% # Type of FU issued
system.switch_cpus1.iq.FU_type_0::SimdFloatAdd     23841037      4.84%     67.37% # Type of FU issued
system.switch_cpus1.iq.FU_type_0::SimdFloatAlu            0      0.00%     67.37% # Type of FU issued
system.switch_cpus1.iq.FU_type_0::SimdFloatCmp       652242      0.13%     67.51% # Type of FU issued
system.switch_cpus1.iq.FU_type_0::SimdFloatCvt     18089336      3.67%     71.18% # Type of FU issued
system.switch_cpus1.iq.FU_type_0::SimdFloatDiv      5720650      1.16%     72.34% # Type of FU issued
system.switch_cpus1.iq.FU_type_0::SimdFloatMisc            0      0.00%     72.34% # Type of FU issued
system.switch_cpus1.iq.FU_type_0::SimdFloatMult     27062549      5.49%     77.83% # Type of FU issued
system.switch_cpus1.iq.FU_type_0::SimdFloatMultAcc            0      0.00%     77.83% # Type of FU issued
system.switch_cpus1.iq.FU_type_0::SimdFloatSqrt      1016360      0.21%     78.03% # Type of FU issued
system.switch_cpus1.iq.FU_type_0::SimdReduceAdd            0      0.00%     78.03% # Type of FU issued
system.switch_cpus1.iq.FU_type_0::SimdReduceAlu            0      0.00%     78.03% # Type of FU issued
system.switch_cpus1.iq.FU_type_0::SimdReduceCmp            0      0.00%     78.03% # Type of FU issued
system.switch_cpus1.iq.FU_type_0::SimdFloatReduceAdd            0      0.00%     78.03% # Type of FU issued
system.switch_cpus1.iq.FU_type_0::SimdFloatReduceCmp            0      0.00%     78.03% # Type of FU issued
[...]
system.switch_cpus3.commit.numCommittedDist::1     13882743      8.28%     59.57% # Number of insts commited each cycle
system.switch_cpus3.commit.numCommittedDist::2      3435223      2.05%     61.62% # Number of insts commited each cycle
system.switch_cpus3.commit.numCommittedDist::3      7184347      4.28%     65.90% # Number of insts commited each cycle
system.switch_cpus3.commit.numCommittedDist::4      5752367      3.43%     69.33% # Number of insts commited each cycle
system.switch_cpus3.commit.numCommittedDist::5      3965188      2.36%     71.70% # Number of insts commited each cycle
system.switch_cpus3.commit.numCommittedDist::6      2808061      1.67%     73.37% # Number of insts commited each cycle
system.switch_cpus3.commit.numCommittedDist::7      2909192      1.73%     75.10% # Number of insts commited each cycle
system.switch_cpus3.commit.numCommittedDist::8     41760539     24.90%    100.00% # Number of insts commited each cycle
system.switch_cpus3.commit.numCommittedDist::overflows            0      0.00%    100.00% # Number of insts commited each cycle
system.switch_cpus3.commit.numCommittedDist::min_value            0                       # Number of insts commited each cycle
system.switch_cpus3.commit.numCommittedDist::max_value            8                       # Number of insts commited each cycle
system.switch_cpus3.commit.numCommittedDist::total    167739783                       # Number of insts commited each cycle
system.switch_cpus3.commit.instsCommitted    250000002                       # Number of instructions committed
system.switch_cpus3.commit.opsCommitted     456438660                       # Number of ops (including micro ops) committed
system.switch_cpus3.commit.memRefs           95535589                       # Number of memory references committed
system.switch_cpus3.commit.loads             69324057                       # Number of loads committed
system.switch_cpus3.commit.amos                     0                       # Number of atomic instructions committed
system.switch_cpus3.commit.membars               1880                       # Number of memory barriers committed
system.switch_cpus3.commit.branches          33082920                       # Number of branches committed
system.switch_cpus3.commit.vector                   0                       # Number of committed Vector instructions.
system.switch_cpus3.commit.floating         253088999                       # Number of committed floating point instructions.
system.switch_cpus3.commit.integer          282469133                       # Number of committed integer instructions.
system.switch_cpus3.commit.functionCalls      1781692                       # Number of function calls committed.
system.switch_cpus3.commit.committedInstType_0::No_OpClass       157149      0.03%      0.03% # Class of committed instruction
system.switch_cpus3.commit.committedInstType_0::IntAlu    206294733     45.20%     45.23% # Class of committed instruction
system.switch_cpus3.commit.committedInstType_0::IntMult        10887      0.00%     45.23% # Class of committed instruction
system.switch_cpus3.commit.committedInstType_0::IntDiv            0      0.00%     45.23% # Class of committed instruction
system.switch_cpus3.commit.committedInstType_0::FloatAdd     65125216     14.27%     59.50% # Class of committed instruction
system.switch_cpus3.commit.committedInstType_0::FloatCmp            0      0.00%     59.50% # Class of committed instruction
system.switch_cpus3.commit.committedInstType_0::FloatCvt            0      0.00%     59.50% # Class of committed instruction
system.switch_cpus3.commit.committedInstType_0::FloatMult            0      0.00%     59.50% # Class of committed instruction
system.switch_cpus3.commit.committedInstType_0::FloatMultAcc            0      0.00%     59.50% # Class of committed instruction
system.switch_cpus3.commit.committedInstType_0::FloatDiv            0      0.00%     59.50% # Class of committed instruction
system.switch_cpus3.commit.committedInstType_0::FloatMisc            0      0.00%     59.50% # Class of committed instruction
system.switch_cpus3.commit.committedInstType_0::FloatSqrt            0      0.00%     59.50% # Class of committed instruction
system.switch_cpus3.commit.committedInstType_0::SimdAdd            0      0.00%     59.50% # Class of committed instruction
system.switch_cpus3.commit.committedInstType_0::SimdAddAcc            0      0.00%     59.50% # Class of committed instruction
system.switch_cpus3.commit.committedInstType_0::SimdAlu      8954648      1.96%     61.46% # Class of committed instruction
system.switch_cpus3.commit.committedInstType_0::SimdCmp            0      0.00%     61.46% # Class of committed instruction
system.switch_cpus3.commit.committedInstType_0::SimdCvt            0      0.00%     61.46% # Class of committed instruction
system.switch_cpus3.commit.committedInstType_0::SimdMisc      5666285      1.24%     62.70% # Class of committed instruction
system.switch_cpus3.commit.committedInstType_0::SimdMult            0      0.00%     62.70% # Class of committed instruction
system.switch_cpus3.commit.committedInstType_0::SimdMultAcc            0      0.00%     62.70% # Class of committed instruction
system.switch_cpus3.commit.committedInstType_0::SimdShift            0      0.00%     62.70% # Class of committed instruction
system.switch_cpus3.commit.committedInstType_0::SimdShiftAcc            0      0.00%     62.70% # Class of committed instruction
system.switch_cpus3.commit.committedInstType_0::SimdDiv            0      0.00%     62.70% # Class of committed instruction
system.switch_cpus3.commit.committedInstType_0::SimdSqrt            0      0.00%     62.70% # Class of committed instruction
system.switch_cpus3.commit.committedInstType_0::SimdFloatAdd     23219967      5.09%     67.79% # Class of committed instruction
system.switch_cpus3.commit.committedInstType_0::SimdFloatAlu            0      0.00%     67.79% # Class of committed instruction
system.switch_cpus3.commit.committedInstType_0::SimdFloatCmp       645181      0.14%     67.93% # Class of committed instruction
system.switch_cpus3.commit.committedInstType_0::SimdFloatCvt     17698286      3.88%     71.81% # Class of committed instruction
system.switch_cpus3.commit.committedInstType_0::SimdFloatDiv      5533644      1.21%     73.02% # Class of committed instruction
system.switch_cpus3.commit.committedInstType_0::SimdFloatMisc            0      0.00%     73.02% # Class of committed instruction
system.switch_cpus3.commit.committedInstType_0::SimdFloatMult     26610426      5.83%     78.85% # Class of committed instruction
system.switch_cpus3.commit.committedInstType_0::SimdFloatMultAcc            0      0.00%     78.85% # Class of committed instruction
system.switch_cpus3.commit.committedInstType_0::SimdFloatSqrt       986649      0.22%     79.07% # Class of committed instruction
system.switch_cpus3.commit.committedInstType_0::SimdReduceAdd            0      0.00%     79.07% # Class of committed instruction
system.switch_cpus3.commit.committedInstType_0::SimdReduceAlu            0      0.00%     79.07% # Class of committed instruction
system.switch_cpus3.commit.committedInstType_0::SimdReduceCmp            0      0.00%     79.07% # Class of committed instruction
system.switch_cpus3.commit.committedInstType_0::SimdFloatReduceAdd            0      0.00%     79.07% # Class of committed instruction
system.switch_cpus3.commit.committedInstType_0::SimdFloatReduceCmp            0      0.00%     79.07% # Class of committed instruction
system.switch_cpus3.commit.committedInstType_0::SimdAes            0      0.00%     79.07% # Class of committed instruction
system.switch_cpus3.commit.committedInstType_0::SimdAesMix            0      0.00%     79.07% # Class of committed instruction
system.switch_cpus3.commit.committedInstType_0::SimdSha1Hash            0      0.00%     79.07% # Class of committed instruction
system.switch_cpus3.commit.committedInstType_0::SimdSha1Hash2            0      0.00%     79.07% # Class of committed instruction
system.switch_cpus3.commit.committedInstType_0::SimdSha256Hash            0      0.00%     79.07% # Class of committed instruction
system.switch_cpus3.commit.committedInstType_0::SimdSha256Hash2            0      0.00%     79.07% # Class of committed instruction
system.switch_cpus3.commit.committedInstType_0::SimdShaSigma2            0      0.00%     79.07% # Class of committed instruction
system.switch_cpus3.commit.committedInstType_0::SimdShaSigma3            0      0.00%     79.07% # Class of committed instruction
system.switch_cpus3.commit.committedInstType_0::SimdPredAlu            0      0.00%     79.07% # Class of committed instruction
system.switch_cpus3.commit.committedInstType_0::MemRead     15185749      3.33%     82.40% # Class of committed instruction
system.switch_cpus3.commit.committedInstType_0::MemWrite      6521327      1.43%     83.83% # Class of committed instruction
system.switch_cpus3.commit.committedInstType_0::FloatMemRead     54138308     11.86%     95.69% # Class of committed instruction
system.switch_cpus3.commit.committedInstType_0::FloatMemWrite     19690205      4.31%    100.00% # Class of committed instruction
system.switch_cpus3.commit.committedInstType_0::IprAccess            0      0.00%    100.00% # Class of committed instruction
system.switch_cpus3.commit.committedInstType_0::InstPrefetch            0      0.00%    100.00% # Class of committed instruction
system.switch_cpus3.commit.committedInstType_0::total    456438660                       # Class of committed instruction
system.switch_cpus3.commit.commitEligibleSamples     41760539                       # number cycles where commit BW limit reached
system.switch_cpus3.decode.idleCycles         8322378                       # Number of cycles decode is idle
system.switch_cpus3.decode.blockedCycles     91488956                       # Number of cycles decode is blocked
system.switch_cpus3.decode.runCycles         60047330                       # Number of cycles decode is running
system.switch_cpus3.decode.unblockCycles     12364774                       # Number of cycles decode is unblocking
system.switch_cpus3.decode.squashCycles        724156                       # Number of cycles decode is squashing
system.switch_cpus3.decode.branchResolved     17539634                       # Number of times decode resolved a  branch
system.switch_cpus3.decode.branchMispred         3950                       # Number of times decode detected a branch misprediction
system.switch_cpus3.decode.decodedInsts     511928163                       # Number of instructions handled by decode
system.switch_cpus3.decode.squashedInsts        20444                       # Number of squashed instructions handled by decode
system.switch_cpus3.dtb.rdAccesses           77873740                       # TLB accesses on read requests
system.switch_cpus3.dtb.wrAccesses           30631832                       # TLB accesses on write requests
system.switch_cpus3.dtb.rdMisses                24751                       # TLB misses on read requests
system.switch_cpus3.dtb.wrMisses                11409                       # TLB misses on write requests
system.switch_cpus3.dtb.walker.power_state.pwrStateResidencyTicks::UNDEFINED 18204067837872                       # Cumulative time (in ticks) in various power states
system.switch_cpus3.fetch.icacheStallCycles      1202663                       # Number of cycles fetch is stalled on an Icache miss
system.switch_cpus3.fetch.insts             284938071                       # Number of instructions fetch has processed
system.switch_cpus3.fetch.branches           38201843                       # Number of branches that fetch encountered
system.switch_cpus3.fetch.predictedBranches     22094900                       # Number of branches that fetch has predicted taken
system.switch_cpus3.fetch.cycles            170996523                       # Number of cycles fetch has run and was not squashing or blocked
system.switch_cpus3.fetch.squashCycles        1456088                       # Number of cycles fetch has spent squashing
system.switch_cpus3.fetch.tlbCycles                 1                       # Number of cycles fetch has spent waiting for tlb
system.switch_cpus3.fetch.miscStallCycles         2657                       # Number of cycles fetch has spent waiting on interrupts,or bad addresses, or out of MSHRs
system.switch_cpus3.fetch.pendingTrapStallCycles        17710                       # Number of stall cycles due to pending traps
system.switch_cpus3.fetch.cacheLines         36824583                       # Number of cache lines fetched
system.switch_cpus3.fetch.icacheSquashes         9950                       # Number of outstanding Icache misses that were squashed
system.switch_cpus3.fetch.nisnDist::samples    172947598                       # Number of instructions fetched each cycle (Total)
system.switch_cpus3.fetch.nisnDist::mean     3.035104                       # Number of instructions fetched each cycle (Total)
system.switch_cpus3.fetch.nisnDist::stdev     3.489440                       # Number of instructions fetched each cycle (Total)
system.switch_cpus3.fetch.nisnDist::underflows            0      0.00%      0.00% # Number of instructions fetched each cycle (Total)
system.switch_cpus3.fetch.nisnDist::0        86807148     50.19%     50.19% # Number of instructions fetched each cycle (Total)
system.switch_cpus3.fetch.nisnDist::1         5301820      3.07%     53.26% # Number of instructions fetched each cycle (Total)
system.switch_cpus3.fetch.nisnDist::2         4946059      2.86%     56.12% # Number of instructions fetched each cycle (Total)
system.switch_cpus3.fetch.nisnDist::3         8469719      4.90%     61.02% # Number of instructions fetched each cycle (Total)
system.switch_cpus3.fetch.nisnDist::4         4977923      2.88%     63.89% # Number of instructions fetched each cycle (Total)
system.switch_cpus3.fetch.nisnDist::5         6441061      3.72%     67.62% # Number of instructions fetched each cycle (Total)
system.switch_cpus3.fetch.nisnDist::6         5167029      2.99%     70.61% # Number of instructions fetched each cycle (Total)
system.switch_cpus3.fetch.nisnDist::7         5503097      3.18%     73.79% # Number of instructions fetched each cycle (Total)
system.switch_cpus3.fetch.nisnDist::8        45333742     26.21%    100.00% # Number of instructions fetched each cycle (Total)
system.switch_cpus3.fetch.nisnDist::overflows            0      0.00%    100.00% # Number of instructions fetched each cycle (Total)
system.switch_cpus3.fetch.nisnDist::min_value            0                       # Number of instructions fetched each cycle (Total)
system.switch_cpus3.fetch.nisnDist::max_value            8                       # Number of instructions fetched each cycle (Total)
system.switch_cpus3.fetch.nisnDist::total    172947598                       # Number of instructions fetched each cycle (Total)
system.switch_cpus3.fetch.branchRate         0.220268                       # Number of branch fetches per cycle
system.switch_cpus3.fetch.rate               1.642921                       # Number of inst fetches per cycle
system.switch_cpus3.itb.rdAccesses                  0                       # TLB accesses on read requests
system.switch_cpus3.itb.wrAccesses           36827527                       # TLB accesses on write requests
system.switch_cpus3.itb.rdMisses                    0                       # TLB misses on read requests
system.switch_cpus3.itb.wrMisses                 3014                       # TLB misses on write requests
system.switch_cpus3.itb.walker.power_state.pwrStateResidencyTicks::UNDEFINED 18204067837872                       # Cumulative time (in ticks) in various power states
system.switch_cpus3.lsq0.forwLoads            5321177                       # Number of loads that had data forwarded from stores
system.switch_cpus3.lsq0.squashedLoads        7741263                       # Number of loads squashed
system.switch_cpus3.lsq0.ignoredResponses         1587                       # Number of memory responses ignored because the instruction is squashed
system.switch_cpus3.lsq0.memOrderViolation        10714                       # Number of memory ordering violations
system.switch_cpus3.lsq0.squashedStores       6549063                       # Number of stores squashed
system.switch_cpus3.lsq0.rescheduledLoads      1005200                       # Number of loads that were rescheduled
system.switch_cpus3.lsq0.blockedByCache          8981                       # Number of times an access to memory failed due to the cache being blocked
system.switch_cpus3.power_state.pwrStateResidencyTicks::OFF  57753466389                       # Cumulative time (in ticks) in various power states
system.switch_cpus3.rename.squashCycles        724156                       # Number of cycles rename is squashing
system.switch_cpus3.rename.idleCycles        13176121                       # Number of cycles rename is idle
system.switch_cpus3.rename.blockCycles       38577598                       # Number of cycles rename is blocking
system.switch_cpus3.rename.serializeStallCycles            0                       # count of cycles rename stalledfor serializing inst
system.switch_cpus3.rename.runCycles         67138530                       # Number of cycles rename is running
system.switch_cpus3.rename.unblockCycles     53331189                       # Number of cycles rename is unblocking
system.switch_cpus3.rename.renamedInsts     506843628                       # Number of instructions processed by rename
system.switch_cpus3.rename.ROBFullEvents      1518070                       # Number of times rename has blocked due to ROB full
system.switch_cpus3.rename.IQFullEvents      12409068                       # Number of times rename has blocked due to IQ full
system.switch_cpus3.rename.LQFullEvents      14011699                       # Number of times rename has blocked due to LQ full
system.switch_cpus3.rename.SQFullEvents      24517303                       # Number of times rename has blocked due to SQ full
system.switch_cpus3.rename.renamedOperands    535980014                       # Number of destination operands rename has renamed
system.switch_cpus3.rename.lookups         1164023651                       # Number of register rename lookups that rename has made
system.switch_cpus3.rename.intLookups       435025481                       # Number of integer rename lookups
system.switch_cpus3.rename.fpLookups        323070240                       # Number of floating rename lookups
system.switch_cpus3.rename.committedMaps    486355501                       # Number of HB maps that are committed
system.switch_cpus3.rename.undoneMaps        49624479                       # Number of HB maps that are undone due to squashing
system.switch_cpus3.rename.serializing              0                       # count of serializing insts renamed
system.switch_cpus3.rename.tempSerializing            0                       # count of temporary serializing insts renamed
system.switch_cpus3.rename.skidInsts         55762555                       # count of insts added to the skid buffer
system.switch_cpus3.rob.reads               619222505                       # The number of ROB reads
system.switch_cpus3.rob.writes              995876714                       # The number of ROB writes
system.switch_cpus3.thread0.numInsts        250000002                       # Number of Instructions committed
system.switch_cpus3.thread0.numOps          456438660                       # Number of Ops committed
system.switch_cpus3.thread0.numMemRefs              0                       # Number of Memory References
system.voltage_domain.voltage                       1                       # Voltage in Volts

---------- End Simulation Statistics   ----------
