
---------- Begin Simulation Statistics ----------
final_tick                               13976821982871                       # Number of ticks from beginning of simulation (restored from checkpoints and never reset)
host_inst_rate                                 167624                       # Simulator instruction rate (inst/s)
host_mem_usage                               17329464                       # Number of bytes of host memory used
host_op_rate                                   233015                       # Simulator op (including micro ops) rate (op/s)
host_seconds                                  2954.54                       # Real time elapsed on the host
host_tick_rate                               10716903                       # Simulator tick rate (ticks/s)
sim_freq                                 1000000000000                       # Frequency of simulated ticks
sim_insts                                   495251395                       # Number of instructions simulated
sim_ops                                     688450670                       # Number of ops (including micro ops) simulated
sim_seconds                                  0.031663                       # Number of seconds simulated
sim_ticks                                 31663498473                       # Number of ticks simulated
system.cpu0.committedInsts                         21                       # Number of instructions committed
system.cpu0.committedOps                           24                       # Number of ops (including micro ops) committed
system.cpu0.idle_fraction                           0                       # Percentage of idle cycles
system.cpu0.l2bus.snoop_filter.hit_multi_requests          593                       # Number of requests hitting in the snoop filter with multiple (>1) holders of the requested data.
system.cpu0.l2bus.snoop_filter.hit_multi_snoops            0                       # Number of snoops hitting in the snoop filter with multiple (>1) holders of the requested data.
system.cpu0.l2bus.snoop_filter.hit_single_requests       304793                       # Number of requests hitting in the snoop filter with a single holder of the requested data.
system.cpu0.l2bus.snoop_filter.hit_single_snoops         1390                       # Number of snoops hitting in the snoop filter with a single holder of the requested data.
system.cpu0.l2bus.snoop_filter.tot_requests       610330                       # Total number of requests made to the snoop filter.
system.cpu0.l2bus.snoop_filter.tot_snoops         1390                       # Total number of snoops made to the snoop filter.
system.cpu0.mmucache.mmubus.snoop_filter.hit_multi_requests            0                       # Number of requests hitting in the snoop filter with multiple (>1) holders of the requested data.
system.cpu0.mmucache.mmubus.snoop_filter.hit_multi_snoops            0                       # Number of snoops hitting in the snoop filter with multiple (>1) holders of the requested data.
system.cpu0.mmucache.mmubus.snoop_filter.hit_single_requests            0                       # Number of requests hitting in the snoop filter with a single holder of the requested data.
system.cpu0.mmucache.mmubus.snoop_filter.hit_single_snoops            0                       # Number of snoops hitting in the snoop filter with a single holder of the requested data.
system.cpu0.mmucache.mmubus.snoop_filter.tot_requests            0                       # Total number of requests made to the snoop filter.
system.cpu0.mmucache.mmubus.snoop_filter.tot_snoops            0                       # Total number of snoops made to the snoop filter.
system.cpu0.not_idle_fraction                       1                       # Percentage of non-idle cycles
system.cpu0.numCycles                              30                       # number of cpu cycles simulated
system.cpu0.numWorkItemsCompleted                   0                       # number of work items this cpu completed
system.cpu0.numWorkItemsStarted                     0                       # number of work items this cpu started
system.cpu0.num_busy_cycles                        30                       # Number of busy cycles
system.cpu0.num_cc_register_reads                   4                       # number of times the CC registers were read
system.cpu0.num_cc_register_writes                  8                       # number of times the CC registers were written
system.cpu0.num_conditional_control_insts            0                       # number of instructions that are conditional controls
system.cpu0.num_fp_alu_accesses                     0                       # Number of float alu accesses
system.cpu0.num_fp_insts                            0                       # number of float instructions
system.cpu0.num_fp_register_reads                   0                       # number of times the floating registers were read
system.cpu0.num_fp_register_writes                  0                       # number of times the floating registers were written
system.cpu0.num_func_calls                          0                       # number of times a function call or return occured
system.cpu0.num_idle_cycles                         0                       # Number of idle cycles
system.cpu0.num_int_alu_accesses                   24                       # Number of integer alu accesses
system.cpu0.num_int_insts                          24                       # number of integer instructions
system.cpu0.num_int_register_reads                 59                       # number of times the integer registers were read
system.cpu0.num_int_register_writes                18                       # number of times the integer registers were written
system.cpu0.num_load_insts                          3                       # Number of load instructions
system.cpu0.num_mem_refs                            9                       # number of memory refs
system.cpu0.num_store_insts                         6                       # Number of store instructions
system.cpu0.num_vec_alu_accesses                    0                       # Number of vector alu accesses
system.cpu0.num_vec_insts                           0                       # number of vector instructions
system.cpu0.num_vec_register_reads                  0                       # number of times the vector registers were read
system.cpu0.num_vec_register_writes                 0                       # number of times the vector registers were written
system.cpu0.op_class::No_OpClass                    0      0.00%      0.00% # Class of executed instruction
system.cpu0.op_class::IntAlu                       15     62.50%     62.50% # Class of executed instruction
system.cpu0.op_class::IntMult                       0      0.00%     62.50% # Class of executed instruction
system.cpu0.op_class::IntDiv                        0      0.00%     62.50% # Class of executed instruction
system.cpu0.op_class::FloatAdd                      0      0.00%     62.50% # Class of executed instruction
system.cpu0.op_class::FloatCmp                      0      0.00%     62.50% # Class of executed instruction
system.cpu0.op_class::FloatCvt                      0      0.00%     62.50% # Class of executed instruction
system.cpu0.op_class::FloatMult                     0      0.00%     62.50% # Class of executed instruction
system.cpu0.op_class::FloatMultAcc                  0      0.00%     62.50% # Class of executed instruction
system.cpu0.op_class::FloatDiv                      0      0.00%     62.50% # Class of executed instruction
system.cpu0.op_class::FloatMisc                     0      0.00%     62.50% # Class of executed instruction
system.cpu0.op_class::FloatSqrt                     0      0.00%     62.50% # Class of executed instruction
system.cpu0.op_class::SimdAdd                       0      0.00%     62.50% # Class of executed instruction
system.cpu0.op_class::SimdAddAcc                    0      0.00%     62.50% # Class of executed instruction
system.cpu0.op_class::SimdAlu                       0      0.00%     62.50% # Class of executed instruction
system.cpu0.op_class::SimdCmp                       0      0.00%     62.50% # Class of executed instruction
system.cpu0.op_class::SimdCvt                       0      0.00%     62.50% # Class of executed instruction
system.cpu0.op_class::SimdMisc                      0      0.00%     62.50% # Class of executed instruction
system.cpu0.op_class::SimdMult                      0      0.00%     62.50% # Class of executed instruction
system.cpu0.op_class::SimdMultAcc                   0      0.00%     62.50% # Class of executed instruction
system.cpu0.op_class::SimdShift                     0      0.00%     62.50% # Class of executed instruction
system.cpu0.op_class::SimdShiftAcc                  0      0.00%     62.50% # Class of executed instruction
system.cpu0.op_class::SimdDiv                       0      0.00%     62.50% # Class of executed instruction
system.cpu0.op_class::SimdSqrt                      0      0.00%     62.50% # Class of executed instruction
system.cpu0.op_class::SimdFloatAdd                  0      0.00%     62.50% # Class of executed instruction
system.cpu0.op_class::SimdFloatAlu                  0      0.00%     62.50% # Class of executed instruction
system.cpu0.op_class::SimdFloatCmp                  0      0.00%     62.50% # Class of executed instruction
system.cpu0.op_class::SimdFloatCvt                  0      0.00%     62.50% # Class of executed instruction
system.cpu0.op_class::SimdFloatDiv                  0      0.00%     62.50% # Class of executed instruction
system.cpu0.op_class::SimdFloatMisc                 0      0.00%     62.50% # Class of executed instruction
system.cpu0.op_class::SimdFloatMult                 0      0.00%     62.50% # Class of executed instruction
system.cpu0.op_class::SimdFloatMultAcc              0      0.00%     62.50% # Class of executed instruction
system.cpu0.op_class::SimdFloatSqrt                 0      0.00%     62.50% # Class of executed instruction
system.cpu0.op_class::SimdReduceAdd                 0      0.00%     62.50% # Class of executed instruction
system.cpu0.op_class::SimdReduceAlu                 0      0.00%     62.50% # Class of executed instruction
system.cpu0.op_class::SimdReduceCmp                 0      0.00%     62.50% # Class of executed instruction
system.cpu0.op_class::SimdFloatReduceAdd            0      0.00%     62.50% # Class of executed instruction
system.cpu0.op_class::SimdFloatReduceCmp            0      0.00%     62.50% # Class of executed instruction
system.cpu0.op_class::SimdAes                       0      0.00%     62.50% # Class of executed instruction
system.cpu0.op_class::SimdAesMix                    0      0.00%     62.50% # Class of executed instruction
system.cpu0.op_class::SimdSha1Hash                  0      0.00%     62.50% # Class of executed instruction
system.cpu0.op_class::SimdSha1Hash2                 0      0.00%     62.50% # Class of executed instruction
system.cpu0.op_class::SimdSha256Hash                0      0.00%     62.50% # Class of executed instruction
system.cpu0.op_class::SimdSha256Hash2               0      0.00%     62.50% # Class of executed instruction
system.cpu0.op_class::SimdShaSigma2                 0      0.00%     62.50% # Class of executed instruction
system.cpu0.op_class::SimdShaSigma3                 0      0.00%     62.50% # Class of executed instruction
system.cpu0.op_class::SimdPredAlu                   0      0.00%     62.50% # Class of executed instruction
system.cpu0.op_class::MemRead                       3     12.50%     75.00% # Class of executed instruction
system.cpu0.op_class::MemWrite                      6     25.00%    100.00% # Class of executed instruction
system.cpu0.op_class::FloatMemRead                  0      0.00%    100.00% # Class of executed instruction
system.cpu0.op_class::FloatMemWrite                 0      0.00%    100.00% # Class of executed instruction
system.cpu0.op_class::IprAccess                     0      0.00%    100.00% # Class of executed instruction
system.cpu0.op_class::InstPrefetch                  0      0.00%    100.00% # Class of executed instruction
system.cpu0.op_class::total                        24                       # Class of executed instruction
system.cpu0.workload.numSyscalls                    0                       # Number of system calls
system.cpu1.Branches                                4                       # Number of branches fetched
system.cpu1.committedInsts                         15                       # Number of instructions committed
system.cpu1.committedOps                           26                       # Number of ops (including micro ops) committed
system.cpu1.idle_fraction                           0                       # Percentage of idle cycles
system.cpu1.l2bus.snoop_filter.hit_multi_requests           67                       # Number of requests hitting in the snoop filter with multiple (>1) holders of the requested data.
system.cpu1.l2bus.snoop_filter.hit_multi_snoops           12                       # Number of snoops hitting in the snoop filter with multiple (>1) holders of the requested data.
system.cpu1.l2bus.snoop_filter.hit_single_requests      2032442                       # Number of requests hitting in the snoop filter with a single holder of the requested data.
system.cpu1.l2bus.snoop_filter.hit_single_snoops          241                       # Number of snoops hitting in the snoop filter with a single holder of the requested data.
system.cpu1.l2bus.snoop_filter.tot_requests      4050703                       # Total number of requests made to the snoop filter.
system.cpu1.l2bus.snoop_filter.tot_snoops          253                       # Total number of snoops made to the snoop filter.
system.cpu1.mmucache.mmubus.snoop_filter.hit_multi_requests            0                       # Number of requests hitting in the snoop filter with multiple (>1) holders of the requested data.
system.cpu1.mmucache.mmubus.snoop_filter.hit_multi_snoops            0                       # Number of snoops hitting in the snoop filter with multiple (>1) holders of the requested data.
system.cpu1.mmucache.mmubus.snoop_filter.hit_single_requests            0                       # Number of requests hitting in the snoop filter with a single holder of the requested data.
system.cpu1.mmucache.mmubus.snoop_filter.hit_single_snoops            0                       # Number of snoops hitting in the snoop filter with a single holder of the requested data.
system.cpu1.mmucache.mmubus.snoop_filter.tot_requests            0                       # Total number of requests made to the snoop filter.
system.cpu1.mmucache.mmubus.snoop_filter.tot_snoops            0                       # Total number of snoops made to the snoop filter.
system.cpu1.not_idle_fraction                       1                       # Percentage of non-idle cycles
system.cpu1.numCycles                              30                       # number of cpu cycles simulated
system.cpu1.numWorkItemsCompleted                   0                       # number of work items this cpu completed
system.cpu1.numWorkItemsStarted                     0                       # number of work items this cpu started
system.cpu1.num_busy_cycles                        30                       # Number of busy cycles
system.cpu1.num_cc_register_reads                  10                       # number of times the CC registers were read
system.cpu1.num_cc_register_writes                  6                       # number of times the CC registers were written
system.cpu1.num_conditional_control_insts            2                       # number of instructions that are conditional controls
system.cpu1.num_fp_alu_accesses                     0                       # Number of float alu accesses
system.cpu1.num_fp_insts                            0                       # number of float instructions
system.cpu1.num_fp_register_reads                   0                       # number of times the floating registers were read
system.cpu1.num_fp_register_writes                  0                       # number of times the floating registers were written
system.cpu1.num_func_calls                          1                       # number of times a function call or return occured
system.cpu1.num_idle_cycles                         0                       # Number of idle cycles
system.cpu1.num_int_alu_accesses                   26                       # Number of integer alu accesses
system.cpu1.num_int_insts                          26                       # number of integer instructions
system.cpu1.num_int_register_reads                 53                       # number of times the integer registers were read
system.cpu1.num_int_register_writes                21                       # number of times the integer registers were written
system.cpu1.num_load_insts                          5                       # Number of load instructions
system.cpu1.num_mem_refs                            6                       # number of memory refs
system.cpu1.num_store_insts                         1                       # Number of store instructions
system.cpu1.num_vec_alu_accesses                    0                       # Number of vector alu accesses
system.cpu1.num_vec_insts                           0                       # number of vector instructions
system.cpu1.num_vec_register_reads                  0                       # number of times the vector registers were read
system.cpu1.num_vec_register_writes                 0                       # number of times the vector registers were written
system.cpu1.op_class::No_OpClass                    0      0.00%      0.00% # Class of executed instruction
system.cpu1.op_class::IntAlu                       20     76.92%     76.92% # Class of executed instruction
system.cpu1.op_class::IntMult                       0      0.00%     76.92% # Class of executed instruction
system.cpu1.op_class::IntDiv                        0      0.00%     76.92% # Class of executed instruction
system.cpu1.op_class::FloatAdd                      0      0.00%     76.92% # Class of executed instruction
system.cpu1.op_class::FloatCmp                      0      0.00%     76.92% # Class of executed instruction
system.cpu1.op_class::FloatCvt                      0      0.00%     76.92% # Class of executed instruction
system.cpu1.op_class::FloatMult                     0      0.00%     76.92% # Class of executed instruction
system.cpu1.op_class::FloatMultAcc                  0      0.00%     76.92% # Class of executed instruction
system.cpu1.op_class::FloatDiv                      0      0.00%     76.92% # Class of executed instruction
system.cpu1.op_class::FloatMisc                     0      0.00%     76.92% # Class of executed instruction
system.cpu1.op_class::FloatSqrt                     0      0.00%     76.92% # Class of executed instruction
system.cpu1.op_class::SimdAdd                       0      0.00%     76.92% # Class of executed instruction
system.cpu1.op_class::SimdAddAcc                    0      0.00%     76.92% # Class of executed instruction
system.cpu1.op_class::SimdAlu                       0      0.00%     76.92% # Class of executed instruction
system.cpu1.op_class::SimdCmp                       0      0.00%     76.92% # Class of executed instruction
system.cpu1.op_class::SimdCvt                       0      0.00%     76.92% # Class of executed instruction
system.cpu1.op_class::SimdMisc                      0      0.00%     76.92% # Class of executed instruction
system.cpu1.op_class::SimdMult                      0      0.00%     76.92% # Class of executed instruction
system.cpu1.op_class::SimdMultAcc                   0      0.00%     76.92% # Class of executed instruction
system.cpu1.op_class::SimdShift                     0      0.00%     76.92% # Class of executed instruction
system.cpu1.op_class::SimdShiftAcc                  0      0.00%     76.92% # Class of executed instruction
system.cpu1.op_class::SimdDiv                       0      0.00%     76.92% # Class of executed instruction
system.cpu1.op_class::SimdSqrt                      0      0.00%     76.92% # Class of executed instruction
system.cpu1.op_class::SimdFloatAdd                  0      0.00%     76.92% # Class of executed instruction
system.cpu1.op_class::SimdFloatAlu                  0      0.00%     76.92% # Class of executed instruction
system.cpu1.op_class::SimdFloatCmp                  0      0.00%     76.92% # Class of executed instruction
system.cpu1.op_class::SimdFloatCvt                  0      0.00%     76.92% # Class of executed instruction
system.cpu1.op_class::SimdFloatDiv                  0      0.00%     76.92% # Class of executed instruction
system.cpu1.op_class::SimdFloatMisc                 0      0.00%     76.92% # Class of executed instruction
system.cpu1.op_class::SimdFloatMult                 0      0.00%     76.92% # Class of executed instruction
system.cpu1.op_class::SimdFloatMultAcc              0      0.00%     76.92% # Class of executed instruction
system.cpu1.op_class::SimdFloatSqrt                 0      0.00%     76.92% # Class of executed instruction
system.cpu1.op_class::SimdReduceAdd                 0      0.00%     76.92% # Class of executed instruction
system.cpu1.op_class::SimdReduceAlu                 0      0.00%     76.92% # Class of executed instruction
system.cpu1.op_class::SimdReduceCmp                 0      0.00%     76.92% # Class of executed instruction
system.cpu1.op_class::SimdFloatReduceAdd            0      0.00%     76.92% # Class of executed instruction
system.cpu1.op_class::SimdFloatReduceCmp            0      0.00%     76.92% # Class of executed instruction
system.cpu1.op_class::SimdAes                       0      0.00%     76.92% # Class of executed instruction
system.cpu1.op_class::SimdAesMix                    0      0.00%     76.92% # Class of executed instruction
system.cpu1.op_class::SimdSha1Hash                  0      0.00%     76.92% # Class of executed instruction
system.cpu1.op_class::SimdSha1Hash2                 0      0.00%     76.92% # Class of executed instruction
system.cpu1.op_class::SimdSha256Hash                0      0.00%     76.92% # Class of executed instruction
system.cpu1.op_class::SimdSha256Hash2               0      0.00%     76.92% # Class of executed instruction
system.cpu1.op_class::SimdShaSigma2                 0      0.00%     76.92% # Class of executed instruction
system.cpu1.op_class::SimdShaSigma3                 0      0.00%     76.92% # Class of executed instruction
system.cpu1.op_class::SimdPredAlu                   0      0.00%     76.92% # Class of executed instruction
system.cpu1.op_class::MemRead                       5     19.23%     96.15% # Class of executed instruction
system.cpu1.op_class::MemWrite                      1      3.85%    100.00% # Class of executed instruction
system.cpu1.op_class::FloatMemRead                  0      0.00%    100.00% # Class of executed instruction
system.cpu1.op_class::FloatMemWrite                 0      0.00%    100.00% # Class of executed instruction
system.cpu1.op_class::IprAccess                     0      0.00%    100.00% # Class of executed instruction
system.cpu1.op_class::InstPrefetch                  0      0.00%    100.00% # Class of executed instruction
system.cpu1.op_class::total                        26                       # Class of executed instruction
system.cpu1.workload.numSyscalls                    0                       # Number of system calls
system.cpu2.Branches                                1                       # Number of branches fetched
system.cpu2.committedInsts                         16                       # Number of instructions committed
system.cpu2.committedOps                           21                       # Number of ops (including micro ops) committed
system.cpu2.idle_fraction                           0                       # Percentage of idle cycles
system.cpu2.l2bus.snoop_filter.hit_multi_requests          116                       # Number of requests hitting in the snoop filter with multiple (>1) holders of the requested data.
system.cpu2.l2bus.snoop_filter.hit_multi_snoops            0                       # Number of snoops hitting in the snoop filter with multiple (>1) holders of the requested data.
system.cpu2.l2bus.snoop_filter.hit_single_requests      1271167                       # Number of requests hitting in the snoop filter with a single holder of the requested data.
system.cpu2.l2bus.snoop_filter.hit_single_snoops          335                       # Number of snoops hitting in the snoop filter with a single holder of the requested data.
system.cpu2.l2bus.snoop_filter.tot_requests      2539937                       # Total number of requests made to the snoop filter.
system.cpu2.l2bus.snoop_filter.tot_snoops          335                       # Total number of snoops made to the snoop filter.
system.cpu2.mmucache.mmubus.snoop_filter.hit_multi_requests            0                       # Number of requests hitting in the snoop filter with multiple (>1) holders of the requested data.
system.cpu2.mmucache.mmubus.snoop_filter.hit_multi_snoops            0                       # Number of snoops hitting in the snoop filter with multiple (>1) holders of the requested data.
system.cpu2.mmucache.mmubus.snoop_filter.hit_single_requests            0                       # Number of requests hitting in the snoop filter with a single holder of the requested data.
system.cpu2.mmucache.mmubus.snoop_filter.hit_single_snoops            0                       # Number of snoops hitting in the snoop filter with a single holder of the requested data.
system.cpu2.mmucache.mmubus.snoop_filter.tot_requests            0                       # Total number of requests made to the snoop filter.
system.cpu2.mmucache.mmubus.snoop_filter.tot_snoops            0                       # Total number of snoops made to the snoop filter.
system.cpu2.not_idle_fraction                       1                       # Percentage of non-idle cycles
system.cpu2.numCycles                              30                       # number of cpu cycles simulated
system.cpu2.numWorkItemsCompleted                   0                       # number of work items this cpu completed
system.cpu2.numWorkItemsStarted                     0                       # number of work items this cpu started
system.cpu2.num_busy_cycles                        30                       # Number of busy cycles
system.cpu2.num_cc_register_reads                   6                       # number of times the CC registers were read
system.cpu2.num_cc_register_writes                  6                       # number of times the CC registers were written
system.cpu2.num_conditional_control_insts            1                       # number of instructions that are conditional controls
system.cpu2.num_fp_alu_accesses                    10                       # Number of float alu accesses
system.cpu2.num_fp_insts                           10                       # number of float instructions
system.cpu2.num_fp_register_reads                  10                       # number of times the floating registers were read
system.cpu2.num_fp_register_writes                  6                       # number of times the floating registers were written
system.cpu2.num_func_calls                          0                       # number of times a function call or return occured
system.cpu2.num_idle_cycles                         0                       # Number of idle cycles
system.cpu2.num_int_alu_accesses                   19                       # Number of integer alu accesses
system.cpu2.num_int_insts                          19                       # number of integer instructions
system.cpu2.num_int_register_reads                 42                       # number of times the integer registers were read
system.cpu2.num_int_register_writes                10                       # number of times the integer registers were written
system.cpu2.num_load_insts                          6                       # Number of load instructions
system.cpu2.num_mem_refs                           10                       # number of memory refs
system.cpu2.num_store_insts                         4                       # Number of store instructions
system.cpu2.num_vec_alu_accesses                    0                       # Number of vector alu accesses
system.cpu2.num_vec_insts                           0                       # number of vector instructions
system.cpu2.num_vec_register_reads                  0                       # number of times the vector registers were read
system.cpu2.num_vec_register_writes                 0                       # number of times the vector registers were written
system.cpu2.op_class::No_OpClass                    0      0.00%      0.00% # Class of executed instruction
system.cpu2.op_class::IntAlu                        9     42.86%     42.86% # Class of executed instruction
system.cpu2.op_class::IntMult                       0      0.00%     42.86% # Class of executed instruction
system.cpu2.op_class::IntDiv                        0      0.00%     42.86% # Class of executed instruction
system.cpu2.op_class::FloatAdd                      0      0.00%     42.86% # Class of executed instruction
system.cpu2.op_class::FloatCmp                      0      0.00%     42.86% # Class of executed instruction
system.cpu2.op_class::FloatCvt                      0      0.00%     42.86% # Class of executed instruction
system.cpu2.op_class::FloatMult                     0      0.00%     42.86% # Class of executed instruction
system.cpu2.op_class::FloatMultAcc                  0      0.00%     42.86% # Class of executed instruction
system.cpu2.op_class::FloatDiv                      0      0.00%     42.86% # Class of executed instruction
system.cpu2.op_class::FloatMisc                     0      0.00%     42.86% # Class of executed instruction
system.cpu2.op_class::FloatSqrt                     0      0.00%     42.86% # Class of executed instruction
system.cpu2.op_class::SimdAdd                       0      0.00%     42.86% # Class of executed instruction
system.cpu2.op_class::SimdAddAcc                    0      0.00%     42.86% # Class of executed instruction
system.cpu2.op_class::SimdAlu                       0      0.00%     42.86% # Class of executed instruction
system.cpu2.op_class::SimdCmp                       0      0.00%     42.86% # Class of executed instruction
system.cpu2.op_class::SimdCvt                       0      0.00%     42.86% # Class of executed instruction
system.cpu2.op_class::SimdMisc                      0      0.00%     42.86% # Class of executed instruction
system.cpu2.op_class::SimdMult                      0      0.00%     42.86% # Class of executed instruction
system.cpu2.op_class::SimdMultAcc                   0      0.00%     42.86% # Class of executed instruction
system.cpu2.op_class::SimdShift                     0      0.00%     42.86% # Class of executed instruction
system.cpu2.op_class::SimdShiftAcc                  0      0.00%     42.86% # Class of executed instruction
system.cpu2.op_class::SimdDiv                       0      0.00%     42.86% # Class of executed instruction
system.cpu2.op_class::SimdSqrt                      0      0.00%     42.86% # Class of executed instruction
system.cpu2.op_class::SimdFloatAdd                  2      9.52%     52.38% # Class of executed instruction
system.cpu2.op_class::SimdFloatAlu                  0      0.00%     52.38% # Class of executed instruction
system.cpu2.op_class::SimdFloatCmp                  0      0.00%     52.38% # Class of executed instruction
system.cpu2.op_class::SimdFloatCvt                  0      0.00%     52.38% # Class of executed instruction
system.cpu2.op_class::SimdFloatDiv                  0      0.00%     52.38% # Class of executed instruction
system.cpu2.op_class::SimdFloatMisc                 0      0.00%     52.38% # Class of executed instruction
system.cpu2.op_class::SimdFloatMult                 0      0.00%     52.38% # Class of executed instruction
system.cpu2.op_class::SimdFloatMultAcc              0      0.00%     52.38% # Class of executed instruction
system.cpu2.op_class::SimdFloatSqrt                 0      0.00%     52.38% # Class of executed instruction
system.cpu2.op_class::SimdReduceAdd                 0      0.00%     52.38% # Class of executed instruction
system.cpu2.op_class::SimdReduceAlu                 0      0.00%     52.38% # Class of executed instruction
system.cpu2.op_class::SimdReduceCmp                 0      0.00%     52.38% # Class of executed instruction
system.cpu2.op_class::SimdFloatReduceAdd            0      0.00%     52.38% # Class of executed instruction
system.cpu2.op_class::SimdFloatReduceCmp            0      0.00%     52.38% # Class of executed instruction
system.cpu2.op_class::SimdAes                       0      0.00%     52.38% # Class of executed instruction
system.cpu2.op_class::SimdAesMix                    0      0.00%     52.38% # Class of executed instruction
system.cpu2.op_class::SimdSha1Hash                  0      0.00%     52.38% # Class of executed instruction
system.cpu2.op_class::SimdSha1Hash2                 0      0.00%     52.38% # Class of executed instruction
system.cpu2.op_class::SimdSha256Hash                0      0.00%     52.38% # Class of executed instruction
system.cpu2.op_class::SimdSha256Hash2               0      0.00%     52.38% # Class of executed instruction
system.cpu2.op_class::SimdShaSigma2                 0      0.00%     52.38% # Class of executed instruction
system.cpu2.op_class::SimdShaSigma3                 0      0.00%     52.38% # Class of executed instruction
system.cpu2.op_class::SimdPredAlu                   0      0.00%     52.38% # Class of executed instruction
system.cpu2.op_class::MemRead                       2      9.52%     61.90% # Class of executed instruction
system.cpu2.op_class::MemWrite                      0      0.00%     61.90% # Class of executed instruction
system.cpu2.op_class::FloatMemRead                  4     19.05%     80.95% # Class of executed instruction
system.cpu2.op_class::FloatMemWrite                 4     19.05%    100.00% # Class of executed instruction
system.cpu2.op_class::IprAccess                     0      0.00%    100.00% # Class of executed instruction
system.cpu2.op_class::InstPrefetch                  0      0.00%    100.00% # Class of executed instruction
system.cpu2.op_class::total                        21                       # Class of executed instruction
system.cpu2.workload.numSyscalls                    0                       # Number of system calls
system.cpu3.committedInsts                         12                       # Number of instructions committed
system.cpu3.committedOps                           22                       # Number of ops (including micro ops) committed
system.cpu3.idle_fraction                           0                       # Percentage of idle cycles
system.cpu3.l2bus.snoop_filter.hit_multi_requests            6                       # Number of requests hitting in the snoop filter with multiple (>1) holders of the requested data.
system.cpu3.l2bus.snoop_filter.hit_multi_snoops            0                       # Number of snoops hitting in the snoop filter with multiple (>1) holders of the requested data.
system.cpu3.l2bus.snoop_filter.hit_single_requests      1063574                       # Number of requests hitting in the snoop filter with a single holder of the requested data.
system.cpu3.l2bus.snoop_filter.hit_single_snoops         2795                       # Number of snoops hitting in the snoop filter with a single holder of the requested data.
system.cpu3.l2bus.snoop_filter.tot_requests      2127897                       # Total number of requests made to the snoop filter.
system.cpu3.l2bus.snoop_filter.tot_snoops         2795                       # Total number of snoops made to the snoop filter.
system.cpu3.mmucache.mmubus.snoop_filter.hit_multi_requests            0                       # Number of requests hitting in the snoop filter with multiple (>1) holders of the requested data.
system.cpu3.mmucache.mmubus.snoop_filter.hit_multi_snoops            0                       # Number of snoops hitting in the snoop filter with multiple (>1) holders of the requested data.
system.cpu3.mmucache.mmubus.snoop_filter.hit_single_requests            0                       # Number of requests hitting in the snoop filter with a single holder of the requested data.
system.cpu3.mmucache.mmubus.snoop_filter.hit_single_snoops            0                       # Number of snoops hitting in the snoop filter with a single holder of the requested data.
system.cpu3.mmucache.mmubus.snoop_filter.tot_requests            0                       # Total number of requests made to the snoop filter.
system.cpu3.mmucache.mmubus.snoop_filter.tot_snoops            0                       # Total number of snoops made to the snoop filter.
system.cpu3.not_idle_fraction                       1                       # Percentage of non-idle cycles
system.cpu3.numCycles                              30                       # number of cpu cycles simulated
system.cpu3.numWorkItemsCompleted                   0                       # number of work items this cpu completed
system.cpu3.numWorkItemsStarted                     0                       # number of work items this cpu started
system.cpu3.num_busy_cycles                        30                       # Number of busy cycles
system.cpu3.num_conditional_control_insts            0                       # number of instructions that are conditional controls
system.cpu3.num_fp_alu_accesses                    17                       # Number of float alu accesses
system.cpu3.num_fp_insts                           17                       # number of float instructions
system.cpu3.num_fp_register_reads                  36                       # number of times the floating registers were read
system.cpu3.num_fp_register_writes                 17                       # number of times the floating registers were written
system.cpu3.num_func_calls                          0                       # number of times a function call or return occured
system.cpu3.num_idle_cycles                         0                       # Number of idle cycles
system.cpu3.num_int_alu_accesses                   10                       # Number of integer alu accesses
system.cpu3.num_int_insts                          10                       # number of integer instructions
system.cpu3.num_int_register_reads                 20                       # number of times the integer registers were read
system.cpu3.num_int_register_writes                 5                       # number of times the integer registers were written
system.cpu3.num_load_insts                          5                       # Number of load instructions
system.cpu3.num_mem_refs                            5                       # number of memory refs
system.cpu3.num_store_insts                         0                       # Number of store instructions
system.cpu3.num_vec_alu_accesses                    0                       # Number of vector alu accesses
system.cpu3.num_vec_insts                           0                       # number of vector instructions
system.cpu3.num_vec_register_reads                  0                       # number of times the vector registers were read
system.cpu3.num_vec_register_writes                 0                       # number of times the vector registers were written
system.cpu3.op_class::No_OpClass                    0      0.00%      0.00% # Class of executed instruction
system.cpu3.op_class::IntAlu                        5     22.73%     22.73% # Class of executed instruction
system.cpu3.op_class::IntMult                       0      0.00%     22.73% # Class of executed instruction
system.cpu3.op_class::IntDiv                        0      0.00%     22.73% # Class of executed instruction
system.cpu3.op_class::FloatAdd                      0      0.00%     22.73% # Class of executed instruction
system.cpu3.op_class::FloatCmp                      0      0.00%     22.73% # Class of executed instruction
system.cpu3.op_class::FloatCvt                      0      0.00%     22.73% # Class of executed instruction
system.cpu3.op_class::FloatMult                     0      0.00%     22.73% # Class of executed instruction
system.cpu3.op_class::FloatMultAcc                  0      0.00%     22.73% # Class of executed instruction
system.cpu3.op_class::FloatDiv                      0      0.00%     22.73% # Class of executed instruction
system.cpu3.op_class::FloatMisc                     0      0.00%     22.73% # Class of executed instruction
system.cpu3.op_class::FloatSqrt                     0      0.00%     22.73% # Class of executed instruction
system.cpu3.op_class::SimdAdd                       0      0.00%     22.73% # Class of executed instruction
system.cpu3.op_class::SimdAddAcc                    0      0.00%     22.73% # Class of executed instruction
system.cpu3.op_class::SimdAlu                       0      0.00%     22.73% # Class of executed instruction
system.cpu3.op_class::SimdCmp                       0      0.00%     22.73% # Class of executed instruction
system.cpu3.op_class::SimdCvt                       0      0.00%     22.73% # Class of executed instruction
system.cpu3.op_class::SimdMisc                      0      0.00%     22.73% # Class of executed instruction
system.cpu3.op_class::SimdMult                      0      0.00%     22.73% # Class of executed instruction
system.cpu3.op_class::SimdMultAcc                   0      0.00%     22.73% # Class of executed instruction
system.cpu3.op_class::SimdShift                     0      0.00%     22.73% # Class of executed instruction
system.cpu3.op_class::SimdShiftAcc                  0      0.00%     22.73% # Class of executed instruction
system.cpu3.op_class::SimdDiv                       0      0.00%     22.73% # Class of executed instruction
system.cpu3.op_class::SimdSqrt                      0      0.00%     22.73% # Class of executed instruction
system.cpu3.op_class::SimdFloatAdd                  5     22.73%     45.45% # Class of executed instruction
system.cpu3.op_class::SimdFloatAlu                  0      0.00%     45.45% # Class of executed instruction
system.cpu3.op_class::SimdFloatCmp                  0      0.00%     45.45% # Class of executed instruction
system.cpu3.op_class::SimdFloatCvt                  0      0.00%     45.45% # Class of executed instruction
system.cpu3.op_class::SimdFloatDiv                  0      0.00%     45.45% # Class of executed instruction
system.cpu3.op_class::SimdFloatMisc                 0      0.00%     45.45% # Class of executed instruction
system.cpu3.op_class::SimdFloatMult                 7     31.82%     77.27% # Class of executed instruction
system.cpu3.op_class::SimdFloatMultAcc              0      0.00%     77.27% # Class of executed instruction
system.cpu3.op_class::SimdFloatSqrt                 0      0.00%     77.27% # Class of executed instruction
system.cpu3.op_class::SimdReduceAdd                 0      0.00%     77.27% # Class of executed instruction
system.cpu3.op_class::SimdReduceAlu                 0      0.00%     77.27% # Class of executed instruction
system.cpu3.op_class::SimdReduceCmp                 0      0.00%     77.27% # Class of executed instruction
system.cpu3.op_class::SimdFloatReduceAdd            0      0.00%     77.27% # Class of executed instruction
system.cpu3.op_class::SimdFloatReduceCmp            0      0.00%     77.27% # Class of executed instruction
system.cpu3.op_class::SimdAes                       0      0.00%     77.27% # Class of executed instruction
system.cpu3.op_class::SimdAesMix                    0      0.00%     77.27% # Class of executed instruction
system.cpu3.op_class::SimdSha1Hash                  0      0.00%     77.27% # Class of executed instruction
system.cpu3.op_class::SimdSha1Hash2                 0      0.00%     77.27% # Class of executed instruction
system.cpu3.op_class::SimdSha256Hash                0      0.00%     77.27% # Class of executed instruction
system.cpu3.op_class::SimdSha256Hash2               0      0.00%     77.27% # Class of executed instruction
system.cpu3.op_class::SimdShaSigma2                 0      0.00%     77.27% # Class of executed instruction
system.cpu3.op_class::SimdShaSigma3                 0      0.00%     77.27% # Class of executed instruction
system.cpu3.op_class::SimdPredAlu                   0      0.00%     77.27% # Class of executed instruction
system.cpu3.op_class::MemRead                       0      0.00%     77.27% # Class of executed instruction
system.cpu3.op_class::MemWrite                      0      0.00%     77.27% # Class of executed instruction
system.cpu3.op_class::FloatMemRead                  5     22.73%    100.00% # Class of executed instruction
system.cpu3.op_class::FloatMemWrite                 0      0.00%    100.00% # Class of executed instruction
system.cpu3.op_class::IprAccess                     0      0.00%    100.00% # Class of executed instruction
system.cpu3.op_class::InstPrefetch                  0      0.00%    100.00% # Class of executed instruction
system.cpu3.op_class::total                        22                       # Class of executed instruction
system.cpu3.workload.numSyscalls                    0                       # Number of system calls
system.l3bus.snoop_filter.hit_multi_requests            0                       # Number of requests hitting in the snoop filter with multiple (>1) holders of the requested data.
system.l3bus.snoop_filter.hit_multi_snoops            0                       # Number of snoops hitting in the snoop filter with multiple (>1) holders of the requested data.
system.l3bus.snoop_filter.hit_single_requests      2064060                       # Number of requests hitting in the snoop filter with a single holder of the requested data.
system.l3bus.snoop_filter.hit_single_snoops            0                       # Number of snoops hitting in the snoop filter with a single holder of the requested data.
system.l3bus.snoop_filter.tot_requests        4145555                       # Total number of requests made to the snoop filter.
system.l3bus.snoop_filter.tot_snoops                0                       # Total number of snoops made to the snoop filter.
system.membus.snoop_filter.hit_multi_requests            0                       # Number of requests hitting in the snoop filter with multiple (>1) holders of the requested data.
system.membus.snoop_filter.hit_multi_snoops            0                       # Number of snoops hitting in the snoop filter with multiple (>1) holders of the requested data.
system.membus.snoop_filter.hit_single_requests      1071370                       # Number of requests hitting in the snoop filter with a single holder of the requested data.
system.membus.snoop_filter.hit_single_snoops            0                       # Number of snoops hitting in the snoop filter with a single holder of the requested data.
system.membus.snoop_filter.tot_requests       2224129                       # Total number of requests made to the snoop filter.
system.membus.snoop_filter.tot_snoops               0                       # Total number of snoops made to the snoop filter.
system.switch_cpus0.cc_regfile_reads        115100161                       # number of cc regfile reads
system.switch_cpus0.cc_regfile_writes       101698442                       # number of cc regfile writes
system.switch_cpus0.committedInsts          126934861                       # Number of Instructions Simulated
system.switch_cpus0.committedOps            205520984                       # Number of Ops (including micro ops) Simulated
system.switch_cpus0.cpi                      0.749089                       # CPI: Cycles Per Instruction
system.switch_cpus0.cpi_total                0.749089                       # CPI: Total CPI of All Threads
system.switch_cpus0.fp_regfile_reads           127797                       # number of floating regfile reads
system.switch_cpus0.fp_regfile_writes          127911                       # number of floating regfile writes
system.switch_cpus0.idleCycles                 167996                       # Total number of cycles that the CPU has spent unscheduled due to idling
system.switch_cpus0.iew.branchMispredicts      1695884                       # Number of branch mispredicts detected at execute
system.switch_cpus0.iew.exec_branches        22653861                       # Number of branches executed
system.switch_cpus0.iew.exec_nop                    0                       # number of nop insts executed
system.switch_cpus0.iew.exec_rate            2.718435                       # Inst execution rate
system.switch_cpus0.iew.exec_refs            58815087                       # number of memory reference insts executed
system.switch_cpus0.iew.exec_stores          18124911                       # Number of stores executed
system.switch_cpus0.iew.exec_swp                    0                       # number of swp insts executed
system.switch_cpus0.iew.iewBlockCycles       13251389                       # Number of cycles IEW is blocking
system.switch_cpus0.iew.iewDispLoadInsts     47035693                       # Number of dispatched load instructions
system.switch_cpus0.iew.iewDispNonSpecInsts            0                       # Number of dispatched non-speculative instructions
system.switch_cpus0.iew.iewDispSquashedInsts        49768                       # Number of squashed instructions skipped by dispatch
system.switch_cpus0.iew.iewDispStoreInsts     21833485                       # Number of dispatched store instructions
system.switch_cpus0.iew.iewDispatchedInsts    304333362                       # Number of instructions dispatched to IQ
system.switch_cpus0.iew.iewExecLoadInsts     40690176                       # Number of load instructions executed
system.switch_cpus0.iew.iewExecSquashedInsts      3431113                       # Number of squashed instructions skipped in execute
system.switch_cpus0.iew.iewExecutedInsts    258483871                       # Number of executed instructions
system.switch_cpus0.iew.iewIQFullEvents         26672                       # Number of times the IQ has become full, causing a stall
system.switch_cpus0.iew.iewIdleCycles               0                       # Number of cycles IEW is idle
system.switch_cpus0.iew.iewLSQFullEvents        59714                       # Number of times the LSQ has become full, causing a stall
system.switch_cpus0.iew.iewSquashCycles       1535442                       # Number of cycles IEW is squashing
system.switch_cpus0.iew.iewUnblockCycles        94941                       # Number of cycles IEW is unblocking
system.switch_cpus0.iew.memOrderViolationEvents        55690                       # Number of memory order violations
system.switch_cpus0.iew.predictedNotTakenIncorrect       834850                       # Number of branches that were predicted not taken incorrectly
system.switch_cpus0.iew.predictedTakenIncorrect       861034                       # Number of branches that were predicted taken incorrectly
system.switch_cpus0.iew.wb_consumers        334773174                       # num instructions consuming a value
system.switch_cpus0.iew.wb_count            257336963                       # cumulative count of insts written-back
system.switch_cpus0.iew.wb_fanout            0.584167                       # average fanout of values written-back
system.switch_cpus0.iew.wb_producers        195563321                       # num instructions producing a value
system.switch_cpus0.iew.wb_rate              2.706373                       # insts written-back per cycle
system.switch_cpus0.iew.wb_sent             258149322                       # cumulative count of insts sent to commit
system.switch_cpus0.int_regfile_reads       398632812                       # number of integer regfile reads
system.switch_cpus0.int_regfile_writes      219045291                       # number of integer regfile writes
system.switch_cpus0.ipc                      1.334954                       # IPC: Instructions Per Cycle
system.switch_cpus0.ipc_total                1.334954                       # IPC: Total IPC of All Threads
system.switch_cpus0.iq.FU_type_0::No_OpClass       633538      0.24%      0.24% # Type of FU issued
system.switch_cpus0.iq.FU_type_0::IntAlu    198986985     75.97%     76.22% # Type of FU issued
system.switch_cpus0.iq.FU_type_0::IntMult      1739364      0.66%     76.88% # Type of FU issued
system.switch_cpus0.iq.FU_type_0::IntDiv       441167      0.17%     77.05% # Type of FU issued
system.switch_cpus0.iq.FU_type_0::FloatAdd            0      0.00%     77.05% # Type of FU issued
system.switch_cpus0.iq.FU_type_0::FloatCmp            0      0.00%     77.05% # Type of FU issued
system.switch_cpus0.iq.FU_type_0::FloatCvt            0      0.00%     77.05% # Type of FU issued
system.switch_cpus0.iq.FU_type_0::FloatMult            0      0.00%     77.05% # Type of FU issued
system.switch_cpus0.iq.FU_type_0::FloatMultAcc            0      0.00%     77.05% # Type of FU issued
system.switch_cpus0.iq.FU_type_0::FloatDiv            0      0.00%     77.05% # Type of FU issued
system.switch_cpus0.iq.FU_type_0::FloatMisc            0      0.00%     77.05% # Type of FU issued
system.switch_cpus0.iq.FU_type_0::FloatSqrt            0      0.00%     77.05% # Type of FU issued
system.switch_cpus0.iq.FU_type_0::SimdAdd            0      0.00%     77.05% # Type of FU issued
system.switch_cpus0.iq.FU_type_0::SimdAddAcc            0      0.00%     77.05% # Type of FU issued
system.switch_cpus0.iq.FU_type_0::SimdAlu            0      0.00%     77.05% # Type of FU issued
system.switch_cpus0.iq.FU_type_0::SimdCmp            0      0.00%     77.05% # Type of FU issued
system.switch_cpus0.iq.FU_type_0::SimdCvt            0      0.00%     77.05% # Type of FU issued
system.switch_cpus0.iq.FU_type_0::SimdMisc            0      0.00%     77.05% # Type of FU issued
system.switch_cpus0.iq.FU_type_0::SimdMult            0      0.00%     77.05% # Type of FU issued
system.switch_cpus0.iq.FU_type_0::SimdMultAcc            0      0.00%     77.05% # Type of FU issued
system.switch_cpus0.iq.FU_type_0::SimdShift            0      0.00%     77.05% # Type of FU issued
system.switch_cpus0.iq.FU_type_0::SimdShiftAcc            0      0.00%     77.05% # Type of FU issued
system.switch_cpus0.iq.FU_type_0::SimdDiv            0      0.00%     77.05% # Type of FU issued
system.switch_cpus0.iq.FU_type_0::SimdSqrt            0      0.00%     77.05% # Type of FU issued
system.switch_cpus0.iq.FU_type_0::SimdFloatAdd            0      0.00%     77.05% # Type of FU issued
system.switch_cpus0.iq.FU_type_0::SimdFloatAlu            0      0.00%     77.05% # Type of FU issued
system.switch_cpus0.iq.FU_type_0::SimdFloatCmp            0      0.00%     77.05% # Type of FU issued
system.switch_cpus0.iq.FU_type_0::SimdFloatCvt            0      0.00%     77.05% # Type of FU issued
system.switch_cpus0.iq.FU_type_0::SimdFloatDiv            0      0.00%     77.05% # Type of FU issued
system.switch_cpus0.iq.FU_type_0::SimdFloatMisc            0      0.00%     77.05% # Type of FU issued
system.switch_cpus0.iq.FU_type_0::SimdFloatMult            0      0.00%     77.05% # Type of FU issued
system.switch_cpus0.iq.FU_type_0::SimdFloatMultAcc            0      0.00%     77.05% # Type of FU issued
system.switch_cpus0.iq.FU_type_0::SimdFloatSqrt            0      0.00%     77.05% # Type of FU issued
system.switch_cpus0.iq.FU_type_0::SimdReduceAdd            0      0.00%     77.05% # Type of FU issued
system.switch_cpus0.iq.FU_type_0::SimdReduceAlu            0      0.00%     77.05% # Type of FU issued
system.switch_cpus0.iq.FU_type_0::SimdReduceCmp            0      0.00%     77.05% # Type of FU issued
system.switch_cpus0.iq.FU_type_0::SimdFloatReduceAdd            0      0.00%     77.05% # Type of FU issued
system.switch_cpus0.iq.FU_type_0::SimdFloatReduceCmp            0      0.00%     77.05% # Type of FU issued
system.switch_cpus0.iq.FU_type_0::SimdAes            0      0.00%     77.05% # Type of FU issued
system.switch_cpus0.iq.FU_type_0::SimdAesMix            0      0.00%     77.05% # Type of FU issued
system.switch_cpus0.iq.FU_type_0::SimdSha1Hash            0      0.00%     77.05% # Type of FU issued
system.switch_cpus0.iq.FU_type_0::SimdSha1Hash2            0      0.00%     77.05% # Type of FU issued
system.switch_cpus0.iq.FU_type_0::SimdSha256Hash            0      0.00%     77.05% # Type of FU issued
system.switch_cpus0.iq.FU_type_0::SimdSha256Hash2            0      0.00%     77.05% # Type of FU issued
system.switch_cpus0.iq.FU_type_0::SimdShaSigma2            0      0.00%     77.05% # Type of FU issued
system.switch_cpus0.iq.FU_type_0::SimdShaSigma3            0      0.00%     77.05% # Type of FU issued
system.switch_cpus0.iq.FU_type_0::SimdPredAlu            0      0.00%     77.05% # Type of FU issued
system.switch_cpus0.iq.FU_type_0::MemRead     41428047     15.82%     92.87% # Type of FU issued
system.switch_cpus0.iq.FU_type_0::MemWrite     18430147      7.04%     99.90% # Type of FU issued
system.switch_cpus0.iq.FU_type_0::FloatMemRead       127916      0.05%     99.95% # Type of FU issued
system.switch_cpus0.iq.FU_type_0::FloatMemWrite       127820      0.05%    100.00% # Type of FU issued
system.switch_cpus0.iq.FU_type_0::IprAccess            0      0.00%    100.00% # Type of FU issued
system.switch_cpus0.iq.FU_type_0::InstPrefetch            0      0.00%    100.00% # Type of FU issued
system.switch_cpus0.iq.FU_type_0::total     261914984                       # Type of FU issued
system.switch_cpus0.iq.fp_alu_accesses         255736                       # Number of floating point alu accesses
system.switch_cpus0.iq.fp_inst_queue_reads       511472                       # Number of floating instruction queue reads
system.switch_cpus0.iq.fp_inst_queue_wakeup_accesses       255617                       # Number of floating instruction queue wakeup accesses
system.switch_cpus0.iq.fp_inst_queue_writes       422012                       # Number of floating instruction queue writes
system.switch_cpus0.iq.fu_busy_cnt            5610981                       # FU busy when requested
system.switch_cpus0.iq.fu_busy_rate          0.021423                       # FU busy rate (busy events/executed inst)
system.switch_cpus0.iq.fu_full::No_OpClass            0      0.00%      0.00% # attempts to use FU when none available
system.switch_cpus0.iq.fu_full::IntAlu        4010522     71.48%     71.48% # attempts to use FU when none available
system.switch_cpus0.iq.fu_full::IntMult             0      0.00%     71.48% # attempts to use FU when none available
system.switch_cpus0.iq.fu_full::IntDiv              0      0.00%     71.48% # attempts to use FU when none available
system.switch_cpus0.iq.fu_full::FloatAdd            0      0.00%     71.48% # attempts to use FU when none available
system.switch_cpus0.iq.fu_full::FloatCmp            0      0.00%     71.48% # attempts to use FU when none available
system.switch_cpus0.iq.fu_full::FloatCvt            0      0.00%     71.48% # attempts to use FU when none available
system.switch_cpus0.iq.fu_full::FloatMult            0      0.00%     71.48% # attempts to use FU when none available
system.switch_cpus0.iq.fu_full::FloatMultAcc            0      0.00%     71.48% # attempts to use FU when none available
system.switch_cpus0.iq.fu_full::FloatDiv            0      0.00%     71.48% # attempts to use FU when none available
system.switch_cpus0.iq.fu_full::FloatMisc            0      0.00%     71.48% # attempts to use FU when none available
system.switch_cpus0.iq.fu_full::FloatSqrt            0      0.00%     71.48% # attempts to use FU when none available
system.switch_cpus0.iq.fu_full::SimdAdd             0      0.00%     71.48% # attempts to use FU when none available
system.switch_cpus0.iq.fu_full::SimdAddAcc            0      0.00%     71.48% # attempts to use FU when none available
system.switch_cpus0.iq.fu_full::SimdAlu             0      0.00%     71.48% # attempts to use FU when none available
system.switch_cpus0.iq.fu_full::SimdCmp             0      0.00%     71.48% # attempts to use FU when none available
system.switch_cpus0.iq.fu_full::SimdCvt             0      0.00%     71.48% # attempts to use FU when none available
system.switch_cpus0.iq.fu_full::SimdMisc            0      0.00%     71.48% # attempts to use FU when none available
system.switch_cpus0.iq.fu_full::SimdMult            0      0.00%     71.48% # attempts to use FU when none available
system.switch_cpus0.iq.fu_full::SimdMultAcc            0      0.00%     71.48% # attempts to use FU when none available
system.switch_cpus0.iq.fu_full::SimdShift            0      0.00%     71.48% # attempts to use FU when none available
system.switch_cpus0.iq.fu_full::SimdShiftAcc            0      0.00%     71.48% # attempts to use FU when none available
system.switch_cpus0.iq.fu_full::SimdDiv             0      0.00%     71.48% # attempts to use FU when none available
system.switch_cpus0.iq.fu_full::SimdSqrt            0      0.00%     71.48% # attempts to use FU when none available
system.switch_cpus0.iq.fu_full::SimdFloatAdd            0      0.00%     71.48% # attempts to use FU when none available
system.switch_cpus0.iq.fu_full::SimdFloatAlu            0      0.00%     71.48% # attempts to use FU when none available
system.switch_cpus0.iq.fu_full::SimdFloatCmp            0      0.00%     71.48% # attempts to use FU when none available
system.switch_cpus0.iq.fu_full::SimdFloatCvt            0      0.00%     71.48% # attempts to use FU when none available
system.switch_cpus0.iq.fu_full::SimdFloatDiv            0      0.00%     71.48% # attempts to use FU when none available
system.switch_cpus0.iq.fu_full::SimdFloatMisc            0      0.00%     71.48% # attempts to use FU when none available
system.switch_cpus0.iq.fu_full::SimdFloatMult            0      0.00%     71.48% # attempts to use FU when none available
system.switch_cpus0.iq.fu_full::SimdFloatMultAcc            0      0.00%     71.48% # attempts to use FU when none available
system.switch_cpus0.iq.fu_full::SimdFloatSqrt            0      0.00%     71.48% # attempts to use FU when none available
system.switch_cpus0.iq.fu_full::SimdReduceAdd            0      0.00%     71.48% # attempts to use FU when none available
system.switch_cpus0.iq.fu_full::SimdReduceAlu            0      0.00%     71.48% # attempts to use FU when none available
system.switch_cpus0.iq.fu_full::SimdReduceCmp            0      0.00%     71.48% # attempts to use FU when none available
system.switch_cpus0.iq.fu_full::SimdFloatReduceAdd            0      0.00%     71.48% # attempts to use FU when none available
system.switch_cpus0.iq.fu_full::SimdFloatReduceCmp            0      0.00%     71.48% # attempts to use FU when none available
system.switch_cpus0.iq.fu_full::SimdAes             0      0.00%     71.48% # attempts to use FU when none available
system.switch_cpus0.iq.fu_full::SimdAesMix            0      0.00%     71.48% # attempts to use FU when none available
system.switch_cpus0.iq.fu_full::SimdSha1Hash            0      0.00%     71.48% # attempts to use FU when none available
system.switch_cpus0.iq.fu_full::SimdSha1Hash2            0      0.00%     71.48% # attempts to use FU when none available
system.switch_cpus0.iq.fu_full::SimdSha256Hash            0      0.00%     71.48% # attempts to use FU when none available
system.switch_cpus0.iq.fu_full::SimdSha256Hash2            0      0.00%     71.48% # attempts to use FU when none available
system.switch_cpus0.iq.fu_full::SimdShaSigma2            0      0.00%     71.48% # attempts to use FU when none available
system.switch_cpus0.iq.fu_full::SimdShaSigma3            0      0.00%     71.48% # attempts to use FU when none available
system.switch_cpus0.iq.fu_full::SimdPredAlu            0      0.00%     71.48% # attempts to use FU when none available
system.switch_cpus0.iq.fu_full::MemRead       1161468     20.70%     92.18% # attempts to use FU when none available
system.switch_cpus0.iq.fu_full::MemWrite       438991      7.82%    100.00% # attempts to use FU when none available
system.switch_cpus0.iq.fu_full::FloatMemRead            0      0.00%    100.00% # attempts to use FU when none available
system.switch_cpus0.iq.fu_full::FloatMemWrite            0      0.00%    100.00% # attempts to use FU when none available
system.switch_cpus0.iq.fu_full::IprAccess            0      0.00%    100.00% # attempts to use FU when none available
system.switch_cpus0.iq.fu_full::InstPrefetch            0      0.00%    100.00% # attempts to use FU when none available
system.switch_cpus0.iq.int_alu_accesses     266636691                       # Number of integer alu accesses
system.switch_cpus0.iq.int_inst_queue_reads    624565301                       # Number of integer instruction queue reads
system.switch_cpus0.iq.int_inst_queue_wakeup_accesses    257081346                       # Number of integer instruction queue wakeup accesses
system.switch_cpus0.iq.int_inst_queue_writes    402777257                       # Number of integer instruction queue writes
system.switch_cpus0.iq.iqInstsAdded         304333362                       # Number of instructions added to the IQ (excludes non-spec)
system.switch_cpus0.iq.iqInstsIssued        261914984                       # Number of instructions issued
system.switch_cpus0.iq.iqSquashedInstsExamined     98812186                       # Number of squashed instructions iterated over during squash; mainly for profiling
system.switch_cpus0.iq.iqSquashedInstsIssued       718270                       # Number of squashed instructions issued
system.switch_cpus0.iq.iqSquashedOperandsExamined    152994197                       # Number of squashed operands that are examined and possibly removed from graph
system.switch_cpus0.iq.issued_per_cycle::samples     94917554                       # Number of insts issued each cycle
system.switch_cpus0.iq.issued_per_cycle::mean     2.759395                       # Number of insts issued each cycle
system.switch_cpus0.iq.issued_per_cycle::stdev     2.564914                       # Number of insts issued each cycle
system.switch_cpus0.iq.issued_per_cycle::underflows            0      0.00%      0.00% # Number of insts issued each cycle
system.switch_cpus0.iq.issued_per_cycle::0     30346171     31.97%     31.97% # Number of insts issued each cycle
system.switch_cpus0.iq.issued_per_cycle::1      8147871      8.58%     40.56% # Number of insts issued each cycle
system.switch_cpus0.iq.issued_per_cycle::2     10131126     10.67%     51.23% # Number of insts issued each cycle
system.switch_cpus0.iq.issued_per_cycle::3     10276002     10.83%     62.06% # Number of insts issued each cycle
system.switch_cpus0.iq.issued_per_cycle::4      9764790     10.29%     72.34% # Number of insts issued each cycle
system.switch_cpus0.iq.issued_per_cycle::5      8225577      8.67%     81.01% # Number of insts issued each cycle
system.switch_cpus0.iq.issued_per_cycle::6      8123136      8.56%     89.57% # Number of insts issued each cycle
system.switch_cpus0.iq.issued_per_cycle::7      5472054      5.77%     95.33% # Number of insts issued each cycle
system.switch_cpus0.iq.issued_per_cycle::8      4430827      4.67%    100.00% # Number of insts issued each cycle
system.switch_cpus0.iq.issued_per_cycle::overflows            0      0.00%    100.00% # Number of insts issued each cycle
system.switch_cpus0.iq.issued_per_cycle::min_value            0                       # Number of insts issued each cycle
system.switch_cpus0.iq.issued_per_cycle::max_value            8                       # Number of insts issued each cycle
system.switch_cpus0.iq.issued_per_cycle::total     94917554                       # Number of insts issued each cycle
system.switch_cpus0.iq.rate                  2.754519                       # Inst issue rate
system.switch_cpus0.iq.vec_alu_accesses             0                       # Number of vector alu accesses
system.switch_cpus0.iq.vec_inst_queue_reads            0                       # Number of vector instruction queue reads
system.switch_cpus0.iq.vec_inst_queue_wakeup_accesses            0                       # Number of vector instruction queue wakeup accesses
system.switch_cpus0.iq.vec_inst_queue_writes            0                       # Number of vector instruction queue writes
system.switch_cpus0.memDep0.conflictingLoads      7887308                       # Number of conflicting loads.
system.switch_cpus0.memDep0.conflictingStores      3568950                       # Number of conflicting stores.
system.switch_cpus0.memDep0.insertedLoads     47035693                       # Number of loads inserted to the mem dependence unit.
system.switch_cpus0.memDep0.insertedStores     21833485                       # Number of stores inserted to the mem dependence unit.
system.switch_cpus0.misc_regfile_reads      112039165                       # number of misc regfile reads
system.switch_cpus0.misc_regfile_writes             1                       # number of misc regfile writes
system.switch_cpus0.numCycles                95085550                       # number of cpu cycles simulated
system.switch_cpus0.numWorkItemsCompleted            0                       # number of work items this cpu completed
system.switch_cpus0.numWorkItemsStarted             0                       # number of work items this cpu started
system.switch_cpus0.timesIdled                   1881                       # Number of times that the entire CPU went into an idle state and unscheduled itself
system.switch_cpus1.cc_regfile_reads         92720614                       # number of cc regfile reads
system.switch_cpus1.cc_regfile_writes        37746018                       # number of cc regfile writes
system.switch_cpus1.committedInsts           61192027                       # Number of Instructions Simulated
system.switch_cpus1.committedOps            105409131                       # Number of Ops (including micro ops) Simulated
system.switch_cpus1.cpi                      1.553888                       # CPI: Cycles Per Instruction
system.switch_cpus1.cpi_total                1.553888                       # CPI: Total CPI of All Threads
system.switch_cpus1.fp_regfile_writes              56                       # number of floating regfile writes
system.switch_cpus1.idleCycles                  12402                       # Total number of cycles that the CPU has spent unscheduled due to idling
system.switch_cpus1.iew.branchMispredicts      1440204                       # Number of branch mispredicts detected at execute
system.switch_cpus1.iew.exec_branches        24493724                       # Number of branches executed
system.switch_cpus1.iew.exec_nop                    0                       # number of nop insts executed
system.switch_cpus1.iew.exec_rate            1.770621                       # Inst execution rate
system.switch_cpus1.iew.exec_refs            41848588                       # number of memory reference insts executed
system.switch_cpus1.iew.exec_stores           8728090                       # Number of stores executed
system.switch_cpus1.iew.exec_swp                    0                       # number of swp insts executed
system.switch_cpus1.iew.iewBlockCycles       38686113                       # Number of cycles IEW is blocking
system.switch_cpus1.iew.iewDispLoadInsts     38024700                       # Number of dispatched load instructions
system.switch_cpus1.iew.iewDispNonSpecInsts            0                       # Number of dispatched non-speculative instructions
system.switch_cpus1.iew.iewDispSquashedInsts        54862                       # Number of squashed instructions skipped by dispatch
system.switch_cpus1.iew.iewDispStoreInsts      9840934                       # Number of dispatched store instructions
system.switch_cpus1.iew.iewDispatchedInsts    192032200                       # Number of instructions dispatched to IQ
system.switch_cpus1.iew.iewExecLoadInsts     33120498                       # Number of load instructions executed
system.switch_cpus1.iew.iewExecSquashedInsts      4336391                       # Number of squashed instructions skipped in execute
system.switch_cpus1.iew.iewExecutedInsts    168360491                       # Number of executed instructions
system.switch_cpus1.iew.iewIQFullEvents        165211                       # Number of times the IQ has become full, causing a stall
system.switch_cpus1.iew.iewIdleCycles               0                       # Number of cycles IEW is idle
system.switch_cpus1.iew.iewLSQFullEvents      3438994                       # Number of times the LSQ has become full, causing a stall
system.switch_cpus1.iew.iewSquashCycles       1393826                       # Number of cycles IEW is squashing
system.switch_cpus1.iew.iewUnblockCycles      3750191                       # Number of cycles IEW is unblocking
system.switch_cpus1.iew.memOrderViolationEvents         3974                       # Number of memory order violations
system.switch_cpus1.iew.predictedNotTakenIncorrect       784882                       # Number of branches that were predicted not taken incorrectly
system.switch_cpus1.iew.predictedTakenIncorrect       655322                       # Number of branches that were predicted taken incorrectly
system.switch_cpus1.iew.wb_consumers        175905352                       # num instructions consuming a value
system.switch_cpus1.iew.wb_count            166326597                       # cumulative count of insts written-back
system.switch_cpus1.iew.wb_fanout            0.655311                       # average fanout of values written-back
system.switch_cpus1.iew.wb_producers        115272800                       # num instructions producing a value
system.switch_cpus1.iew.wb_rate              1.749231                       # insts written-back per cycle
system.switch_cpus1.iew.wb_sent             167468021                       # cumulative count of insts sent to commit
system.switch_cpus1.int_regfile_reads       241230823                       # number of integer regfile reads
system.switch_cpus1.int_regfile_writes      135217548                       # number of integer regfile writes
system.switch_cpus1.ipc                      0.643547                       # IPC: Instructions Per Cycle
system.switch_cpus1.ipc_total                0.643547                       # IPC: Total IPC of All Threads
system.switch_cpus1.iq.FU_type_0::No_OpClass        71213      0.04%      0.04% # Type of FU issued
system.switch_cpus1.iq.FU_type_0::IntAlu    128342244     74.32%     74.36% # Type of FU issued
system.switch_cpus1.iq.FU_type_0::IntMult       175195      0.10%     74.46% # Type of FU issued
system.switch_cpus1.iq.FU_type_0::IntDiv       442749      0.26%     74.72% # Type of FU issued
system.switch_cpus1.iq.FU_type_0::FloatAdd            0      0.00%     74.72% # Type of FU issued
system.switch_cpus1.iq.FU_type_0::FloatCmp            0      0.00%     74.72% # Type of FU issued
system.switch_cpus1.iq.FU_type_0::FloatCvt            0      0.00%     74.72% # Type of FU issued
system.switch_cpus1.iq.FU_type_0::FloatMult            0      0.00%     74.72% # Type of FU issued
system.switch_cpus1.iq.FU_type_0::FloatMultAcc            0      0.00%     74.72% # Type of FU issued
system.switch_cpus1.iq.FU_type_0::FloatDiv            0      0.00%     74.72% # Type of FU issued
system.switch_cpus1.iq.FU_type_0::FloatMisc            0      0.00%     74.72% # Type of FU issued
system.switch_cpus1.iq.FU_type_0::FloatSqrt            0      0.00%     74.72% # Type of FU issued
system.switch_cpus1.iq.FU_type_0::SimdAdd            0      0.00%     74.72% # Type of FU issued
system.switch_cpus1.iq.FU_type_0::SimdAddAcc            0      0.00%     74.72% # Type of FU issued
system.switch_cpus1.iq.FU_type_0::SimdAlu            0      0.00%     74.72% # Type of FU issued
system.switch_cpus1.iq.FU_type_0::SimdCmp            0      0.00%     74.72% # Type of FU issued
system.switch_cpus1.iq.FU_type_0::SimdCvt            0      0.00%     74.72% # Type of FU issued
system.switch_cpus1.iq.FU_type_0::SimdMisc            0      0.00%     74.72% # Type of FU issued
system.switch_cpus1.iq.FU_type_0::SimdMult            0      0.00%     74.72% # Type of FU issued
system.switch_cpus1.iq.FU_type_0::SimdMultAcc            0      0.00%     74.72% # Type of FU issued
system.switch_cpus1.iq.FU_type_0::SimdShift            0      0.00%     74.72% # Type of FU issued
system.switch_cpus1.iq.FU_type_0::SimdShiftAcc            0      0.00%     74.72% # Type of FU issued
system.switch_cpus1.iq.FU_type_0::SimdDiv            0      0.00%     74.72% # Type of FU issued
system.switch_cpus1.iq.FU_type_0::SimdSqrt            0      0.00%     74.72% # Type of FU issued
system.switch_cpus1.iq.FU_type_0::SimdFloatAdd            0      0.00%     74.72% # Type of FU issued
system.switch_cpus1.iq.FU_type_0::SimdFloatAlu            0      0.00%     74.72% # Type of FU issued
system.switch_cpus1.iq.FU_type_0::SimdFloatCmp            0      0.00%     74.72% # Type of FU issued
system.switch_cpus1.iq.FU_type_0::SimdFloatCvt            0      0.00%     74.72% # Type of FU issued
system.switch_cpus1.iq.FU_type_0::SimdFloatDiv            0      0.00%     74.72% # Type of FU issued
system.switch_cpus1.iq.FU_type_0::SimdFloatMisc            0      0.00%     74.72% # Type of FU issued
system.switch_cpus1.iq.FU_type_0::SimdFloatMult            0      0.00%     74.72% # Type of FU issued
system.switch_cpus1.iq.FU_type_0::SimdFloatMultAcc            0      0.00%     74.72% # Type of FU issued
system.switch_cpus1.iq.FU_type_0::SimdFloatSqrt            0      0.00%     74.72% # Type of FU issued
system.switch_cpus1.iq.FU_type_0::SimdReduceAdd            0      0.00%     74.72% # Type of FU issued
system.switch_cpus1.iq.FU_type_0::SimdReduceAlu            0      0.00%     74.72% # Type of FU issued
system.switch_cpus1.iq.FU_type_0::SimdReduceCmp            0      0.00%     74.72% # Type of FU issued
system.switch_cpus1.iq.FU_type_0::SimdFloatReduceAdd            0      0.00%     74.72% # Type of FU issued
system.switch_cpus1.iq.FU_type_0::SimdFloatReduceCmp            0      0.00%     74.72% # Type of FU issued
system.switch_cpus1.iq.FU_type_0::SimdAes            0      0.00%     74.72% # Type of FU issued
system.switch_cpus1.iq.FU_type_0::SimdAesMix            0      0.00%     74.72% # Type of FU issued
system.switch_cpus1.iq.FU_type_0::SimdSha1Hash            0      0.00%     74.72% # Type of FU issued
system.switch_cpus1.iq.FU_type_0::SimdSha1Hash2            0      0.00%     74.72% # Type of FU issued
system.switch_cpus1.iq.FU_type_0::SimdSha256Hash            0      0.00%     74.72% # Type of FU issued
system.switch_cpus1.iq.FU_type_0::SimdSha256Hash2            0      0.00%     74.72% # Type of FU issued
system.switch_cpus1.iq.FU_type_0::SimdShaSigma2            0      0.00%     74.72% # Type of FU issued
system.switch_cpus1.iq.FU_type_0::SimdShaSigma3            0      0.00%     74.72% # Type of FU issued
[...]
system.switch_cpus3.commit.numCommittedDist::stdev     2.299390                       # Number of insts commited each cycle
system.switch_cpus3.commit.numCommittedDist::underflows            0      0.00%      0.00% # Number of insts commited each cycle
system.switch_cpus3.commit.numCommittedDist::0     80729429     84.98%     84.98% # Number of insts commited each cycle
system.switch_cpus3.commit.numCommittedDist::1      1964887      2.07%     87.05% # Number of insts commited each cycle
system.switch_cpus3.commit.numCommittedDist::2      1569114      1.65%     88.70% # Number of insts commited each cycle
system.switch_cpus3.commit.numCommittedDist::3      1149719      1.21%     89.91% # Number of insts commited each cycle
system.switch_cpus3.commit.numCommittedDist::4       590334      0.62%     90.53% # Number of insts commited each cycle
system.switch_cpus3.commit.numCommittedDist::5       640266      0.67%     91.20% # Number of insts commited each cycle
system.switch_cpus3.commit.numCommittedDist::6       226756      0.24%     91.44% # Number of insts commited each cycle
system.switch_cpus3.commit.numCommittedDist::7       153371      0.16%     91.60% # Number of insts commited each cycle
system.switch_cpus3.commit.numCommittedDist::8      7977547      8.40%    100.00% # Number of insts commited each cycle
system.switch_cpus3.commit.numCommittedDist::overflows            0      0.00%    100.00% # Number of insts commited each cycle
system.switch_cpus3.commit.numCommittedDist::min_value            0                       # Number of insts commited each cycle
system.switch_cpus3.commit.numCommittedDist::max_value            8                       # Number of insts commited each cycle
system.switch_cpus3.commit.numCommittedDist::total     95001423                       # Number of insts commited each cycle
system.switch_cpus3.commit.instsCommitted     57124437                       # Number of instructions committed
system.switch_cpus3.commit.opsCommitted      80369447                       # Number of ops (including micro ops) committed
system.switch_cpus3.commit.memRefs           21091020                       # Number of memory references committed
system.switch_cpus3.commit.loads             16873382                       # Number of loads committed
system.switch_cpus3.commit.amos                     0                       # Number of atomic instructions committed
system.switch_cpus3.commit.membars                  0                       # Number of memory barriers committed
system.switch_cpus3.commit.branches           3337127                       # Number of branches committed
system.switch_cpus3.commit.vector                   0                       # Number of committed Vector instructions.
system.switch_cpus3.commit.floating          51641455                       # Number of committed floating point instructions.
system.switch_cpus3.commit.integer           48559221                       # Number of committed integer instructions.
system.switch_cpus3.commit.functionCalls          131                       # Number of function calls committed.
system.switch_cpus3.commit.committedInstType_0::No_OpClass         2042      0.00%      0.00% # Class of committed instruction
system.switch_cpus3.commit.committedInstType_0::IntAlu     31025424     38.60%     38.61% # Class of committed instruction
system.switch_cpus3.commit.committedInstType_0::IntMult         3480      0.00%     38.61% # Class of committed instruction
system.switch_cpus3.commit.committedInstType_0::IntDiv            7      0.00%     38.61% # Class of committed instruction
system.switch_cpus3.commit.committedInstType_0::FloatAdd           79      0.00%     38.61% # Class of committed instruction
system.switch_cpus3.commit.committedInstType_0::FloatCmp            0      0.00%     38.61% # Class of committed instruction
system.switch_cpus3.commit.committedInstType_0::FloatCvt            0      0.00%     38.61% # Class of committed instruction
system.switch_cpus3.commit.committedInstType_0::FloatMult            0      0.00%     38.61% # Class of committed instruction
system.switch_cpus3.commit.committedInstType_0::FloatMultAcc            0      0.00%     38.61% # Class of committed instruction
system.switch_cpus3.commit.committedInstType_0::FloatDiv            0      0.00%     38.61% # Class of committed instruction
system.switch_cpus3.commit.committedInstType_0::FloatMisc            0      0.00%     38.61% # Class of committed instruction
system.switch_cpus3.commit.committedInstType_0::FloatSqrt            0      0.00%     38.61% # Class of committed instruction
system.switch_cpus3.commit.committedInstType_0::SimdAdd            0      0.00%     38.61% # Class of committed instruction
system.switch_cpus3.commit.committedInstType_0::SimdAddAcc            0      0.00%     38.61% # Class of committed instruction
system.switch_cpus3.commit.committedInstType_0::SimdAlu       344008      0.43%     39.04% # Class of committed instruction
system.switch_cpus3.commit.committedInstType_0::SimdCmp            0      0.00%     39.04% # Class of committed instruction
system.switch_cpus3.commit.committedInstType_0::SimdCvt            0      0.00%     39.04% # Class of committed instruction
system.switch_cpus3.commit.committedInstType_0::SimdMisc          455      0.00%     39.04% # Class of committed instruction
system.switch_cpus3.commit.committedInstType_0::SimdMult            0      0.00%     39.04% # Class of committed instruction
system.switch_cpus3.commit.committedInstType_0::SimdMultAcc            0      0.00%     39.04% # Class of committed instruction
system.switch_cpus3.commit.committedInstType_0::SimdShift            0      0.00%     39.04% # Class of committed instruction
system.switch_cpus3.commit.committedInstType_0::SimdShiftAcc            0      0.00%     39.04% # Class of committed instruction
system.switch_cpus3.commit.committedInstType_0::SimdDiv            0      0.00%     39.04% # Class of committed instruction
system.switch_cpus3.commit.committedInstType_0::SimdSqrt            0      0.00%     39.04% # Class of committed instruction
system.switch_cpus3.commit.committedInstType_0::SimdFloatAdd     11156058     13.88%     52.92% # Class of committed instruction
system.switch_cpus3.commit.committedInstType_0::SimdFloatAlu            0      0.00%     52.92% # Class of committed instruction
system.switch_cpus3.commit.committedInstType_0::SimdFloatCmp            0      0.00%     52.92% # Class of committed instruction
system.switch_cpus3.commit.committedInstType_0::SimdFloatCvt      1744664      2.17%     55.09% # Class of committed instruction
system.switch_cpus3.commit.committedInstType_0::SimdFloatDiv       340439      0.42%     55.51% # Class of committed instruction
system.switch_cpus3.commit.committedInstType_0::SimdFloatMisc            0      0.00%     55.51% # Class of committed instruction
system.switch_cpus3.commit.committedInstType_0::SimdFloatMult     14182582     17.65%     73.16% # Class of committed instruction
system.switch_cpus3.commit.committedInstType_0::SimdFloatMultAcc            0      0.00%     73.16% # Class of committed instruction
system.switch_cpus3.commit.committedInstType_0::SimdFloatSqrt       479189      0.60%     73.76% # Class of committed instruction
system.switch_cpus3.commit.committedInstType_0::SimdReduceAdd            0      0.00%     73.76% # Class of committed instruction
system.switch_cpus3.commit.committedInstType_0::SimdReduceAlu            0      0.00%     73.76% # Class of committed instruction
system.switch_cpus3.commit.committedInstType_0::SimdReduceCmp            0      0.00%     73.76% # Class of committed instruction
system.switch_cpus3.commit.committedInstType_0::SimdFloatReduceAdd            0      0.00%     73.76% # Class of committed instruction
system.switch_cpus3.commit.committedInstType_0::SimdFloatReduceCmp            0      0.00%     73.76% # Class of committed instruction
system.switch_cpus3.commit.committedInstType_0::SimdAes            0      0.00%     73.76% # Class of committed instruction
system.switch_cpus3.commit.committedInstType_0::SimdAesMix            0      0.00%     73.76% # Class of committed instruction
system.switch_cpus3.commit.committedInstType_0::SimdSha1Hash            0      0.00%     73.76% # Class of committed instruction
system.switch_cpus3.commit.committedInstType_0::SimdSha1Hash2            0      0.00%     73.76% # Class of committed instruction
system.switch_cpus3.commit.committedInstType_0::SimdSha256Hash            0      0.00%     73.76% # Class of committed instruction
system.switch_cpus3.commit.committedInstType_0::SimdSha256Hash2            0      0.00%     73.76% # Class of committed instruction
system.switch_cpus3.commit.committedInstType_0::SimdShaSigma2            0      0.00%     73.76% # Class of committed instruction
system.switch_cpus3.commit.committedInstType_0::SimdShaSigma3            0      0.00%     73.76% # Class of committed instruction
system.switch_cpus3.commit.committedInstType_0::SimdPredAlu            0      0.00%     73.76% # Class of committed instruction
system.switch_cpus3.commit.committedInstType_0::MemRead      1226510      1.53%     75.28% # Class of committed instruction
system.switch_cpus3.commit.committedInstType_0::MemWrite        30546      0.04%     75.32% # Class of committed instruction
system.switch_cpus3.commit.committedInstType_0::FloatMemRead     15646872     19.47%     94.79% # Class of committed instruction
system.switch_cpus3.commit.committedInstType_0::FloatMemWrite      4187092      5.21%    100.00% # Class of committed instruction
system.switch_cpus3.commit.committedInstType_0::IprAccess            0      0.00%    100.00% # Class of committed instruction
system.switch_cpus3.commit.committedInstType_0::InstPrefetch            0      0.00%    100.00% # Class of committed instruction
system.switch_cpus3.commit.committedInstType_0::total     80369447                       # Class of committed instruction
system.switch_cpus3.commit.commitEligibleSamples      7977547                       # number cycles where commit BW limit reached
system.switch_cpus3.decode.idleCycles         1047068                       # Number of cycles decode is idle
system.switch_cpus3.decode.blockedCycles     83189617                       # Number of cycles decode is blocked
system.switch_cpus3.decode.runCycles          8486134                       # Number of cycles decode is running
system.switch_cpus3.decode.unblockCycles      2294193                       # Number of cycles decode is unblocking
system.switch_cpus3.decode.squashCycles          7260                       # Number of cycles decode is squashing
system.switch_cpus3.decode.branchResolved      1597603                       # Number of times decode resolved a  branch
system.switch_cpus3.decode.branchMispred          104                       # Number of times decode detected a branch misprediction
system.switch_cpus3.decode.decodedInsts      80637369                       # Number of instructions handled by decode
system.switch_cpus3.decode.squashedInsts          493                       # Number of squashed instructions handled by decode
system.switch_cpus3.dtb.rdAccesses           16903423                       # TLB accesses on read requests
system.switch_cpus3.dtb.wrAccesses            4218515                       # TLB accesses on write requests
system.switch_cpus3.dtb.rdMisses                38410                       # TLB misses on read requests
system.switch_cpus3.dtb.wrMisses                 8583                       # TLB misses on write requests
system.switch_cpus3.dtb.walker.power_state.pwrStateResidencyTicks::UNDEFINED 13976821982871                       # Cumulative time (in ticks) in various power states
system.switch_cpus3.fetch.icacheStallCycles        48276                       # Number of cycles fetch is stalled on an Icache miss
system.switch_cpus3.fetch.insts              57458809                       # Number of instructions fetch has processed
system.switch_cpus3.fetch.branches            3360904                       # Number of branches that fetch encountered
system.switch_cpus3.fetch.predictedBranches      1605944                       # Number of branches that fetch has predicted taken
system.switch_cpus3.fetch.cycles             94968664                       # Number of cycles fetch has run and was not squashing or blocked
system.switch_cpus3.fetch.squashCycles          14726                       # Number of cycles fetch has spent squashing
system.switch_cpus3.fetch.cacheLines          4995671                       # Number of cache lines fetched
system.switch_cpus3.fetch.icacheSquashes          197                       # Number of outstanding Icache misses that were squashed
system.switch_cpus3.fetch.nisnDist::samples     95024303                       # Number of instructions fetched each cycle (Total)
system.switch_cpus3.fetch.nisnDist::mean     0.850545                       # Number of instructions fetched each cycle (Total)
system.switch_cpus3.fetch.nisnDist::stdev     2.318028                       # Number of instructions fetched each cycle (Total)
system.switch_cpus3.fetch.nisnDist::underflows            0      0.00%      0.00% # Number of instructions fetched each cycle (Total)
system.switch_cpus3.fetch.nisnDist::0        81879040     86.17%     86.17% # Number of instructions fetched each cycle (Total)
system.switch_cpus3.fetch.nisnDist::1         1201531      1.26%     87.43% # Number of instructions fetched each cycle (Total)
system.switch_cpus3.fetch.nisnDist::2          593948      0.63%     88.06% # Number of instructions fetched each cycle (Total)
system.switch_cpus3.fetch.nisnDist::3         1027539      1.08%     89.14% # Number of instructions fetched each cycle (Total)
system.switch_cpus3.fetch.nisnDist::4          867955      0.91%     90.05% # Number of instructions fetched each cycle (Total)
system.switch_cpus3.fetch.nisnDist::5          489617      0.52%     90.57% # Number of instructions fetched each cycle (Total)
system.switch_cpus3.fetch.nisnDist::6          472296      0.50%     91.06% # Number of instructions fetched each cycle (Total)
system.switch_cpus3.fetch.nisnDist::7         1342338      1.41%     92.48% # Number of instructions fetched each cycle (Total)
system.switch_cpus3.fetch.nisnDist::8         7150039      7.52%    100.00% # Number of instructions fetched each cycle (Total)
system.switch_cpus3.fetch.nisnDist::overflows            0      0.00%    100.00% # Number of instructions fetched each cycle (Total)
system.switch_cpus3.fetch.nisnDist::min_value            0                       # Number of instructions fetched each cycle (Total)
system.switch_cpus3.fetch.nisnDist::max_value            8                       # Number of instructions fetched each cycle (Total)
system.switch_cpus3.fetch.nisnDist::total     95024303                       # Number of instructions fetched each cycle (Total)
system.switch_cpus3.fetch.branchRate         0.035346                       # Number of branch fetches per cycle
system.switch_cpus3.fetch.rate               0.604285                       # Number of inst fetches per cycle
system.switch_cpus3.itb.rdAccesses                  0                       # TLB accesses on read requests
system.switch_cpus3.itb.wrAccesses            4995671                       # TLB accesses on write requests
system.switch_cpus3.itb.rdMisses                    0                       # TLB misses on read requests
system.switch_cpus3.itb.wrMisses                   22                       # TLB misses on write requests
system.switch_cpus3.itb.walker.power_state.pwrStateResidencyTicks::UNDEFINED 13976821982871                       # Cumulative time (in ticks) in various power states
system.switch_cpus3.lsq0.forwLoads            1219214                       # Number of loads that had data forwarded from stores
system.switch_cpus3.lsq0.squashedLoads          42561                       # Number of loads squashed
system.switch_cpus3.lsq0.ignoredResponses           18                       # Number of memory responses ignored because the instruction is squashed
system.switch_cpus3.lsq0.memOrderViolation          515                       # Number of memory ordering violations
system.switch_cpus3.lsq0.squashedStores          6889                       # Number of stores squashed
system.switch_cpus3.lsq0.rescheduledLoads            8                       # Number of loads that were rescheduled
system.switch_cpus3.lsq0.blockedByCache            28                       # Number of times an access to memory failed due to the cache being blocked
system.switch_cpus3.power_state.pwrStateResidencyTicks::OFF  31663498473                       # Cumulative time (in ticks) in various power states
system.switch_cpus3.rename.squashCycles          7260                       # Number of cycles rename is squashing
system.switch_cpus3.rename.idleCycles         2056066                       # Number of cycles rename is idle
system.switch_cpus3.rename.blockCycles       40117937                       # Number of cycles rename is blocking
system.switch_cpus3.rename.serializeStallCycles            0                       # count of cycles rename stalledfor serializing inst
system.switch_cpus3.rename.runCycles          9698038                       # Number of cycles rename is running
system.switch_cpus3.rename.unblockCycles     43144971                       # Number of cycles rename is unblocking
system.switch_cpus3.rename.renamedInsts      80587026                       # Number of instructions processed by rename
system.switch_cpus3.rename.ROBFullEvents       206582                       # Number of times rename has blocked due to ROB full
system.switch_cpus3.rename.IQFullEvents       4247083                       # Number of times rename has blocked due to IQ full
system.switch_cpus3.rename.LQFullEvents       2995917                       # Number of times rename has blocked due to LQ full
system.switch_cpus3.rename.SQFullEvents      36102736                       # Number of times rename has blocked due to SQ full
system.switch_cpus3.rename.renamedOperands     95687703                       # Number of destination operands rename has renamed
system.switch_cpus3.rename.lookups          217698500                       # Number of register rename lookups that rename has made
system.switch_cpus3.rename.intLookups        69514531                       # Number of integer rename lookups
system.switch_cpus3.rename.fpLookups         93686667                       # Number of floating rename lookups
system.switch_cpus3.rename.committedMaps     95397589                       # Number of HB maps that are committed
system.switch_cpus3.rename.undoneMaps          290114                       # Number of HB maps that are undone due to squashing
system.switch_cpus3.rename.serializing              0                       # count of serializing insts renamed
system.switch_cpus3.rename.tempSerializing            0                       # count of temporary serializing insts renamed
system.switch_cpus3.rename.skidInsts         13160428                       # count of insts added to the skid buffer
system.switch_cpus3.rob.reads               167550614                       # The number of ROB reads
system.switch_cpus3.rob.writes              161076386                       # The number of ROB writes
system.switch_cpus3.thread0.numInsts         57124437                       # Number of Instructions committed
system.switch_cpus3.thread0.numOps           80369447                       # Number of Ops committed
system.switch_cpus3.thread0.numMemRefs              0                       # Number of Memory References
system.voltage_domain.voltage                       1                       # Voltage in Volts

---------- End Simulation Statistics   ----------
