Command line:
./runscript_pride.sh mcf RFM1.BR2.4C 4 2017 --rh_defense --rh_mitigation=RFM --rh_rfm_per_trefi=1 --rh_rfm_blast_radius=2 --rh_rfm_maxacts_per_trefi=79
Global frequency set at 1000000000000 ticks per second
RFM details - rfm_act_threshold: 79, blast_radius: 2, delay_per_rfm: 175000 ps. sample_rate: 0.012500
RH Defense config: RFM, Bus Delay: 0, rfms_per_trefi: 1, rfm_act_threshold: 79, blast_radius: 2,rfm_delay_per_act: 45000 ps.
DRAM config: RowsPerBank: 65536, BanksPerRank: 32, RanksPerChannel: 1
warn: Sockets disabled, not accepting gdb connections
warn: CoherentXBar system.cpu0.mmucache.mmubus has no snooping ports attached!
warn: CoherentXBar system.cpu1.mmucache.mmubus has no snooping ports attached!
warn: CoherentXBar system.cpu2.mmucache.mmubus has no snooping ports attached!
warn: CoherentXBar system.cpu3.mmucache.mmubus has no snooping ports attached!
warn: Checkpoints for file descriptors currently do not work.
warn: Checkpoints for file descriptors currently do not work.
warn: Checkpoints for file descriptors currently do not work.
warn: Checkpoints for file descriptors currently do not work.
gem5 Simulator System.  http://gem5.org
gem5 is copyrighted software; use the --copyright option for details.

gem5 version 20.1.0.5
gem5 compiled Jul 12 2024 12:42:38
gem5 started Jul 22 2024 13:29:34
gem5 executing on a07dda8b130c, pid 87764
command line: /home/user/PrIDE/performance/gem5/build/X86/gem5.opt --outdir=/home/user/PrIDE/performance/gem5/stats/pride_multiprogram_16GBmem_250Mn.SPEC2017.C4/RFM1.BR2.4C/mcf /home/user/PrIDE/performance/gem5/configs/example/se_rq_spec_config_multicore.py --redirects /lib64=/home/utils/gcc-6.2.0/lib64 --benchmark=mcf --benchmark_stdout=/home/user/PrIDE/performance/gem5/stats/pride_multiprogram_16GBmem_250Mn.SPEC2017.C4/RFM1.BR2.4C/mcf/mcf.out --benchmark_stderr=/home/user/PrIDE/performance/gem5/stats/pride_multiprogram_16GBmem_250Mn.SPEC2017.C4/RFM1.BR2.4C/mcf/mcf.err --spec-version=2017 --rh_defense --rh_mitigation=RFM --rh_rfm_per_trefi=1 --rh_rfm_blast_radius=2 --rh_rfm_maxacts_per_trefi=79 --num-cpus=4 --mem-size=16GB --mem-type=DDR5_2400_32x4 --mem-ranks=1 --checkpoint-dir=/home/user/PrIDE/performance/gem5/cpts/multiprogram_16GBmem_25Bn.SPEC2017.C4/mcf-1-ref-x86 --checkpoint-restore=25000000000 --at-instruction --cpu-type DerivO3CPU --caches --l2cache --l1d_size=32kB --l1i_size=32kB --l2_size=256kB --l1d_assoc=8 --l1i_assoc=8 --l2_assoc=16 --maxinsts=250000000 --prog-interval=300Hz

info: Standard input is not a terminal, disabling listeners.
Benchmark- 0   mcf
Selected benchmark
--> mcf
CMD: ['/opt/spec2017/benchspec/CPU/505.mcf_r/run/run_base_refrate_gem5_se-m64.0000/mcf_r_base.gem5_se-m64', '/opt/spec2017/benchspec/CPU/505.mcf_r/run/run_base_refrate_gem5_se-m64.0000/inp.in']
CWD: /opt/spec2017/benchspec/CPU/505.mcf_r/run/run_base_refrate_gem5_se-m64.0000/
Process stdout file: /home/user/PrIDE/performance/gem5/stats/pride_multiprogram_16GBmem_250Mn.SPEC2017.C4/RFM1.BR2.4C/mcf/mcf.out_0
Process stderr file: /home/user/PrIDE/performance/gem5/stats/pride_multiprogram_16GBmem_250Mn.SPEC2017.C4/RFM1.BR2.4C/mcf/mcf.err_0
Benchmark- 1   mcf
Selected benchmark
--> mcf
CMD: ['/opt/spec2017/benchspec/CPU/505.mcf_r/run/run_base_refrate_gem5_se-m64.0000/mcf_r_base.gem5_se-m64', '/opt/spec2017/benchspec/CPU/505.mcf_r/run/run_base_refrate_gem5_se-m64.0000/inp.in']
CWD: /opt/spec2017/benchspec/CPU/505.mcf_r/run/run_base_refrate_gem5_se-m64.0000/
Process stdout file: /home/user/PrIDE/performance/gem5/stats/pride_multiprogram_16GBmem_250Mn.SPEC2017.C4/RFM1.BR2.4C/mcf/mcf.out_1
Process stderr file: /home/user/PrIDE/performance/gem5/stats/pride_multiprogram_16GBmem_250Mn.SPEC2017.C4/RFM1.BR2.4C/mcf/mcf.err_1
Benchmark- 2   mcf
Selected benchmark
--> mcf
CMD: ['/opt/spec2017/benchspec/CPU/505.mcf_r/run/run_base_refrate_gem5_se-m64.0000/mcf_r_base.gem5_se-m64', '/opt/spec2017/benchspec/CPU/505.mcf_r/run/run_base_refrate_gem5_se-m64.0000/inp.in']
CWD: /opt/spec2017/benchspec/CPU/505.mcf_r/run/run_base_refrate_gem5_se-m64.0000/
Process stdout file: /home/user/PrIDE/performance/gem5/stats/pride_multiprogram_16GBmem_250Mn.SPEC2017.C4/RFM1.BR2.4C/mcf/mcf.out_2
Process stderr file: /home/user/PrIDE/performance/gem5/stats/pride_multiprogram_16GBmem_250Mn.SPEC2017.C4/RFM1.BR2.4C/mcf/mcf.err_2
Benchmark- 3   mcf
Selected benchmark
--> mcf
CMD: ['/opt/spec2017/benchspec/CPU/505.mcf_r/run/run_base_refrate_gem5_se-m64.0000/mcf_r_base.gem5_se-m64', '/opt/spec2017/benchspec/CPU/505.mcf_r/run/run_base_refrate_gem5_se-m64.0000/inp.in']
CWD: /opt/spec2017/benchspec/CPU/505.mcf_r/run/run_base_refrate_gem5_se-m64.0000/
Process stdout file: /home/user/PrIDE/performance/gem5/stats/pride_multiprogram_16GBmem_250Mn.SPEC2017.C4/RFM1.BR2.4C/mcf/mcf.out_3
Process stderr file: /home/user/PrIDE/performance/gem5/stats/pride_multiprogram_16GBmem_250Mn.SPEC2017.C4/RFM1.BR2.4C/mcf/mcf.err_3
Workload-0: 
['/opt/spec2017/benchspec/CPU/505.mcf_r/run/run_base_refrate_gem5_se-m64.0000/mcf_r_base.gem5_se-m64', '/opt/spec2017/benchspec/CPU/505.mcf_r/run/run_base_refrate_gem5_se-m64.0000/inp.in']
Workload-1: 
['/opt/spec2017/benchspec/CPU/505.mcf_r/run/run_base_refrate_gem5_se-m64.0000/mcf_r_base.gem5_se-m64', '/opt/spec2017/benchspec/CPU/505.mcf_r/run/run_base_refrate_gem5_se-m64.0000/inp.in']
Workload-2: 
['/opt/spec2017/benchspec/CPU/505.mcf_r/run/run_base_refrate_gem5_se-m64.0000/mcf_r_base.gem5_se-m64', '/opt/spec2017/benchspec/CPU/505.mcf_r/run/run_base_refrate_gem5_se-m64.0000/inp.in']
Workload-3: 
['/opt/spec2017/benchspec/CPU/505.mcf_r/run/run_base_refrate_gem5_se-m64.0000/mcf_r_base.gem5_se-m64', '/opt/spec2017/benchspec/CPU/505.mcf_r/run/run_base_refrate_gem5_se-m64.0000/inp.in']
defense_enable:  True  detector:  MG  mitigation:  RFM  threshold:  800
mg_entries:  1700
rfm_maxacts_per_trefi:  79 rfm_per_trefi:  1 rfm_blast_radius:  2
Switch at curTick count:10000
warn: membus.master is deprecated. `master` is now called `mem_side_ports`
warn: No dot file generated. Please install pydot to generate the dot file and pdf.
info: Entering event queue @ 16815150868149.  Starting simulation...
warn: PowerState: Already in the requested power state, request ignored
Switched CPUS @ tick 16815150878149
switching cpus
**** REAL SIMULATION ****
info: Entering event queue @ 16815150878149.  Starting simulation...
16818484201482: Event_285: system.switch_cpus3 progress event, total committed:9406053, progress insts committed: 9406053, IPC: 0.939665
16818484201482: Event_284: system.switch_cpus2 progress event, total committed:9420196, progress insts committed: 9420196, IPC: 0.941078
16818484201482: Event_283: system.switch_cpus1 progress event, total committed:9405784, progress insts committed: 9405784, IPC: 0.939638
16818484201482: Event_282: system.switch_cpus0 progress event, total committed:9424836, progress insts committed: 9424836, IPC: 0.941541
16821817534815: Event_282: system.switch_cpus0 progress event, total committed:19480583, progress insts committed: 10055747, IPC: 01.00457
16821817534815: Event_283: system.switch_cpus1 progress event, total committed:19406044, progress insts committed: 10000260, IPC: 0.999026
16821817534815: Event_284: system.switch_cpus2 progress event, total committed:19475436, progress insts committed: 10055240, IPC: 01.00452
16821817534815: Event_285: system.switch_cpus3 progress event, total committed:19404141, progress insts committed: 9998088, IPC: 0.998809
16825150868148: Event_285: system.switch_cpus3 progress event, total committed:29531710, progress insts committed: 10127569, IPC: 01.01174
16825150868148: Event_284: system.switch_cpus2 progress event, total committed:29637041, progress insts committed: 10161605, IPC: 01.01514
16825150868148: Event_283: system.switch_cpus1 progress event, total committed:29538774, progress insts committed: 10132730, IPC: 01.01226
16825150868148: Event_282: system.switch_cpus0 progress event, total committed:29617912, progress insts committed: 10137329, IPC: 01.01272
16828484201481: Event_282: system.switch_cpus0 progress event, total committed:39940825, progress insts committed: 10322913, IPC: 01.03126
16828484201481: Event_283: system.switch_cpus1 progress event, total committed:39813801, progress insts committed: 10275027, IPC: 01.02648
16828484201481: Event_284: system.switch_cpus2 progress event, total committed:39985027, progress insts committed: 10347986, IPC: 01.03376
16828484201481: Event_285: system.switch_cpus3 progress event, total committed:39813597, progress insts committed: 10281887, IPC: 01.02716
16831817534814: Event_285: system.switch_cpus3 progress event, total committed:50061701, progress insts committed: 10248104, IPC: 01.02379
16831817534814: Event_284: system.switch_cpus2 progress event, total committed:50348663, progress insts committed: 10363636, IPC: 01.03533
16831817534814: Event_283: system.switch_cpus1 progress event, total committed:50064798, progress insts committed: 10250997, IPC: 01.02407
16831817534814: Event_282: system.switch_cpus0 progress event, total committed:50201797, progress insts committed: 10260972, IPC: 01.02507
16835150868147: Event_282: system.switch_cpus0 progress event, total committed:60386112, progress insts committed: 10184315, IPC: 01.01741
16835150868147: Event_283: system.switch_cpus1 progress event, total committed:60220249, progress insts committed: 10155451, IPC: 01.01453
16835150868147: Event_284: system.switch_cpus2 progress event, total committed:60814877, progress insts committed: 10466214, IPC: 01.04557
16835150868147: Event_285: system.switch_cpus3 progress event, total committed:60227864, progress insts committed: 10166163, IPC: 001.0156
16838484201480: Event_285: system.switch_cpus3 progress event, total committed:70756686, progress insts committed: 10528822, IPC: 01.05183
16838484201480: Event_284: system.switch_cpus2 progress event, total committed:71649248, progress insts committed: 10834371, IPC: 01.08235
16838484201480: Event_283: system.switch_cpus1 progress event, total committed:70732536, progress insts committed: 10512287, IPC: 01.05018
16838484201480: Event_282: system.switch_cpus0 progress event, total committed:70942189, progress insts committed: 10556077, IPC: 01.05455
16841817534813: Event_282: system.switch_cpus0 progress event, total committed:81866768, progress insts committed: 10924579, IPC: 01.09137
16841817534813: Event_283: system.switch_cpus1 progress event, total committed:81263730, progress insts committed: 10531194, IPC: 01.05207
16841817534813: Event_284: system.switch_cpus2 progress event, total committed:82535913, progress insts committed: 10886665, IPC: 01.08758
16841817534813: Event_285: system.switch_cpus3 progress event, total committed:81326903, progress insts committed: 10570217, IPC: 01.05596
16845150868146: Event_285: system.switch_cpus3 progress event, total committed:92065450, progress insts committed: 10738547, IPC: 01.07278
16845150868146: Event_284: system.switch_cpus2 progress event, total committed:93550897, progress insts committed: 11014984, IPC: 001.1004
16845150868146: Event_283: system.switch_cpus1 progress event, total committed:91933592, progress insts committed: 10669862, IPC: 01.06592
16845150868146: Event_282: system.switch_cpus0 progress event, total committed:92599386, progress insts committed: 10732618, IPC: 01.07219
16848484201479: Event_282: system.switch_cpus0 progress event, total committed:103769715, progress insts committed: 11170329, IPC: 01.11592
16848484201479: Event_283: system.switch_cpus1 progress event, total committed:102456706, progress insts committed: 10523114, IPC: 01.05126
16848484201479: Event_284: system.switch_cpus2 progress event, total committed:104139270, progress insts committed: 10588373, IPC: 01.05778
16848484201479: Event_285: system.switch_cpus3 progress event, total committed:102489781, progress insts committed: 10424331, IPC: 01.04139
16851817534812: Event_285: system.switch_cpus3 progress event, total committed:112767892, progress insts committed: 10278111, IPC: 01.02678
16851817534812: Event_284: system.switch_cpus2 progress event, total committed:114436135, progress insts committed: 10296865, IPC: 01.02866
16851817534812: Event_283: system.switch_cpus1 progress event, total committed:112681418, progress insts committed: 10224712, IPC: 01.02145
16851817534812: Event_282: system.switch_cpus0 progress event, total committed:114417694, progress insts committed: 10647979, IPC: 01.06373
16855150868145: Event_282: system.switch_cpus0 progress event, total committed:124721953, progress insts committed: 10304259, IPC: 001.0294
16855150868145: Event_283: system.switch_cpus1 progress event, total committed:123075275, progress insts committed: 10393857, IPC: 01.03835
16855150868145: Event_284: system.switch_cpus2 progress event, total committed:124739026, progress insts committed: 10302891, IPC: 01.02926
16855150868145: Event_285: system.switch_cpus3 progress event, total committed:124480168, progress insts committed: 11712276, IPC: 01.17006
16858484201478: Event_285: system.switch_cpus3 progress event, total committed:130018242, progress insts committed: 5538074, IPC: 0.553254
16858484201478: Event_284: system.switch_cpus2 progress event, total committed:130040178, progress insts committed: 5301152, IPC: 0.529585
16858484201478: Event_283: system.switch_cpus1 progress event, total committed:129954559, progress insts committed: 6879284, IPC: 00.68724
16858484201478: Event_282: system.switch_cpus0 progress event, total committed:130033452, progress insts committed: 5311499, IPC: 0.530619
16861817534811: Event_282: system.switch_cpus0 progress event, total committed:134222806, progress insts committed: 4189354, IPC: 0.418516
16861817534811: Event_283: system.switch_cpus1 progress event, total committed:132274337, progress insts committed: 2319778, IPC: 0.231746
16861817534811: Event_284: system.switch_cpus2 progress event, total committed:134275612, progress insts committed: 4235434, IPC: 00.42312
16861817534811: Event_285: system.switch_cpus3 progress event, total committed:134184543, progress insts committed: 4166301, IPC: 0.416213
16865150868144: Event_285: system.switch_cpus3 progress event, total committed:145082621, progress insts committed: 10898078, IPC: 01.08872
16865150868144: Event_284: system.switch_cpus2 progress event, total committed:146110994, progress insts committed: 11835382, IPC: 01.18235
16865150868144: Event_283: system.switch_cpus1 progress event, total committed:143391829, progress insts committed: 11117492, IPC: 01.11064
16865150868144: Event_282: system.switch_cpus0 progress event, total committed:145162064, progress insts committed: 10939258, IPC: 01.09283
16868484201477: Event_282: system.switch_cpus0 progress event, total committed:156127019, progress insts committed: 10964955, IPC: 001.0954
16868484201477: Event_283: system.switch_cpus1 progress event, total committed:154174533, progress insts committed: 10782704, IPC: 01.07719
16868484201477: Event_284: system.switch_cpus2 progress event, total committed:157772979, progress insts committed: 11661985, IPC: 01.16503
16868484201477: Event_285: system.switch_cpus3 progress event, total committed:156123047, progress insts committed: 11040426, IPC: 01.10294
16871817534810: Event_285: system.switch_cpus3 progress event, total committed:167550877, progress insts committed: 11427830, IPC: 01.14164
16871817534810: Event_284: system.switch_cpus2 progress event, total committed:169037601, progress insts committed: 11264622, IPC: 01.12534
16871817534810: Event_283: system.switch_cpus1 progress event, total committed:165987774, progress insts committed: 11813241, IPC: 01.18014
16871817534810: Event_282: system.switch_cpus0 progress event, total committed:167572119, progress insts committed: 11445100, IPC: 01.14337
16875150868143: Event_282: system.switch_cpus0 progress event, total committed:178322764, progress insts committed: 10750645, IPC: 01.07399
16875150868143: Event_283: system.switch_cpus1 progress event, total committed:177894230, progress insts committed: 11906456, IPC: 01.18945
16875150868143: Event_284: system.switch_cpus2 progress event, total committed:180037266, progress insts committed: 10999665, IPC: 01.09887
16875150868143: Event_285: system.switch_cpus3 progress event, total committed:178311040, progress insts committed: 10760163, IPC: 01.07494
16878484201476: Event_285: system.switch_cpus3 progress event, total committed:189844551, progress insts committed: 11533511, IPC: 001.1522
16878484201476: Event_284: system.switch_cpus2 progress event, total committed:191773175, progress insts committed: 11735909, IPC: 01.17242
16878484201476: Event_283: system.switch_cpus1 progress event, total committed:189393754, progress insts committed: 11499524, IPC: 001.1488
16878484201476: Event_282: system.switch_cpus0 progress event, total committed:189845023, progress insts committed: 11522259, IPC: 01.15107
16881817534809: Event_282: system.switch_cpus0 progress event, total committed:200735032, progress insts committed: 10890009, IPC: 01.08791
16881817534809: Event_283: system.switch_cpus1 progress event, total committed:200153632, progress insts committed: 10759878, IPC: 01.07491
16881817534809: Event_284: system.switch_cpus2 progress event, total committed:202285557, progress insts committed: 10512382, IPC: 01.05019
16881817534809: Event_285: system.switch_cpus3 progress event, total committed:200777402, progress insts committed: 10932851, IPC: 01.09219
16885150868142: Event_285: system.switch_cpus3 progress event, total committed:211785157, progress insts committed: 11007755, IPC: 01.09967
16885150868142: Event_284: system.switch_cpus2 progress event, total committed:213698473, progress insts committed: 11412916, IPC: 01.14015
16885150868142: Event_283: system.switch_cpus1 progress event, total committed:211692194, progress insts committed: 11538562, IPC: 001.1527
16885150868142: Event_282: system.switch_cpus0 progress event, total committed:211770523, progress insts committed: 11035491, IPC: 01.10245
16888484201475: Event_282: system.switch_cpus0 progress event, total committed:223217119, progress insts committed: 11446596, IPC: 01.14351
16888484201475: Event_283: system.switch_cpus1 progress event, total committed:222626188, progress insts committed: 10933994, IPC: 01.09231
16888484201475: Event_284: system.switch_cpus2 progress event, total committed:224589382, progress insts committed: 10890909, IPC: 0001.088
16888484201475: Event_285: system.switch_cpus3 progress event, total committed:223557328, progress insts committed: 11772171, IPC: 01.17604
16891817534808: Event_285: system.switch_cpus3 progress event, total committed:234976649, progress insts committed: 11419321, IPC: 01.14079
16891817534808: Event_284: system.switch_cpus2 progress event, total committed:235571308, progress insts committed: 10981926, IPC: 01.09709
16891817534808: Event_283: system.switch_cpus1 progress event, total committed:233582086, progress insts committed: 10955898, IPC: 01.09449
16891817534808: Event_282: system.switch_cpus0 progress event, total committed:234038939, progress insts committed: 10821820, IPC: 001.0811
16895150868141: Event_282: system.switch_cpus0 progress event, total committed:245486573, progress insts committed: 11447634, IPC: 01.14362
16895150868141: Event_283: system.switch_cpus1 progress event, total committed:245336310, progress insts committed: 11754224, IPC: 01.17425
16895150868141: Event_284: system.switch_cpus2 progress event, total committed:247330089, progress insts committed: 11758781, IPC: 001.1747
16895150868141: Event_285: system.switch_cpus3 progress event, total committed:246611730, progress insts committed: 11635081, IPC: 01.16234
16898484201474: Event_285: system.switch_cpus3 progress event, total committed:257750372, progress insts committed: 11138642, IPC: 01.11275
16898484201474: Event_284: system.switch_cpus2 progress event, total committed:258411685, progress insts committed: 11081596, IPC: 01.10705
16898484201474: Event_283: system.switch_cpus1 progress event, total committed:256478481, progress insts committed: 11142171, IPC: 001.1131
16898484201474: Event_282: system.switch_cpus0 progress event, total committed:257425260, progress insts committed: 11938687, IPC: 01.19267
16901817534807: Event_282: system.switch_cpus0 progress event, total committed:269290434, progress insts committed: 11865174, IPC: 01.18533
16901817534807: Event_283: system.switch_cpus1 progress event, total committed:267674861, progress insts committed: 11196380, IPC: 01.11852
16901817534807: Event_284: system.switch_cpus2 progress event, total committed:269406819, progress insts committed: 10995134, IPC: 01.09841
16901817534807: Event_285: system.switch_cpus3 progress event, total committed:269309311, progress insts committed: 11558939, IPC: 01.15474
16905150868140: Event_285: system.switch_cpus3 progress event, total committed:280642265, progress insts committed: 11332954, IPC: 01.13216
16905150868140: Event_284: system.switch_cpus2 progress event, total committed:281190981, progress insts committed: 11784162, IPC: 01.17724
16905150868140: Event_283: system.switch_cpus1 progress event, total committed:279234827, progress insts committed: 11559966, IPC: 01.15484
16905150868140: Event_282: system.switch_cpus0 progress event, total committed:280487474, progress insts committed: 11197040, IPC: 01.11858
16908484201473: Event_282: system.switch_cpus0 progress event, total committed:291519834, progress insts committed: 11032360, IPC: 01.10213
16908484201473: Event_283: system.switch_cpus1 progress event, total committed:290448721, progress insts committed: 11213894, IPC: 01.12027
16908484201473: Event_284: system.switch_cpus2 progress event, total committed:292564344, progress insts committed: 11373363, IPC: 001.1362
16908484201473: Event_285: system.switch_cpus3 progress event, total committed:291561316, progress insts committed: 10919051, IPC: 01.09081
16911817534806: Event_285: system.switch_cpus3 progress event, total committed:303014307, progress insts committed: 11452991, IPC: 01.14415
16911817534806: Event_284: system.switch_cpus2 progress event, total committed:303885998, progress insts committed: 11321654, IPC: 01.13103
16911817534806: Event_283: system.switch_cpus1 progress event, total committed:301532870, progress insts committed: 11084149, IPC: 01.10731
16911817534806: Event_282: system.switch_cpus0 progress event, total committed:303010454, progress insts committed: 11490620, IPC: 01.14791
16915150868139: Event_282: system.switch_cpus0 progress event, total committed:314668821, progress insts committed: 11658367, IPC: 01.16467
16915150868139: Event_283: system.switch_cpus1 progress event, total committed:312990185, progress insts committed: 11457315, IPC: 01.14459
16915150868139: Event_284: system.switch_cpus2 progress event, total committed:315317419, progress insts committed: 11431421, IPC: 0001.142
16915150868139: Event_285: system.switch_cpus3 progress event, total committed:314714123, progress insts committed: 11699816, IPC: 01.16881
16918484201472: Event_285: system.switch_cpus3 progress event, total committed:325954219, progress insts committed: 11240096, IPC: 01.12289
16918484201472: Event_284: system.switch_cpus2 progress event, total committed:326866201, progress insts committed: 11548782, IPC: 01.15372
16918484201472: Event_283: system.switch_cpus1 progress event, total committed:324804181, progress insts committed: 11813996, IPC: 01.18022
16918484201472: Event_282: system.switch_cpus0 progress event, total committed:325863979, progress insts committed: 11195158, IPC: 001.1184
16921817534805: Event_282: system.switch_cpus0 progress event, total committed:337150793, progress insts committed: 11286814, IPC: 01.12755
16921817534805: Event_283: system.switch_cpus1 progress event, total committed:336653181, progress insts committed: 11849000, IPC: 01.18372
16921817534805: Event_284: system.switch_cpus2 progress event, total committed:338690891, progress insts committed: 11824690, IPC: 01.18129
16921817534805: Event_285: system.switch_cpus3 progress event, total committed:337103586, progress insts committed: 11149367, IPC: 01.11382
16925150868138: Event_285: system.switch_cpus3 progress event, total committed:348731648, progress insts committed: 11628062, IPC: 01.16164
16925150868138: Event_284: system.switch_cpus2 progress event, total committed:350504071, progress insts committed: 11813180, IPC: 01.18014
16925150868138: Event_283: system.switch_cpus1 progress event, total committed:348232610, progress insts committed: 11579429, IPC: 01.15678
16925150868138: Event_282: system.switch_cpus0 progress event, total committed:348744689, progress insts committed: 11593896, IPC: 01.15823
16928484201471: Event_282: system.switch_cpus0 progress event, total committed:360633800, progress insts committed: 11889111, IPC: 01.18772
16928484201471: Event_283: system.switch_cpus1 progress event, total committed:359661048, progress insts committed: 11428438, IPC: 001.1417
16928484201471: Event_284: system.switch_cpus2 progress event, total committed:361690808, progress insts committed: 11186737, IPC: 01.11756
16928484201471: Event_285: system.switch_cpus3 progress event, total committed:360600237, progress insts committed: 11868589, IPC: 01.18567
16931817534804: Event_285: system.switch_cpus3 progress event, total committed:371327854, progress insts committed: 10727617, IPC: 01.07169
16931817534804: Event_284: system.switch_cpus2 progress event, total committed:372524819, progress insts committed: 10834011, IPC: 01.08232
16931817534804: Event_283: system.switch_cpus1 progress event, total committed:370561508, progress insts committed: 10900460, IPC: 01.08896
16931817534804: Event_282: system.switch_cpus0 progress event, total committed:371752661, progress insts committed: 11118861, IPC: 01.11077
16935150868137: Event_282: system.switch_cpus0 progress event, total committed:383226574, progress insts committed: 11473913, IPC: 01.14624
16935150868137: Event_283: system.switch_cpus1 progress event, total committed:382328717, progress insts committed: 11767209, IPC: 01.17554
16935150868137: Event_284: system.switch_cpus2 progress event, total committed:384313618, progress insts committed: 11788799, IPC: 001.1777
16935150868137: Event_285: system.switch_cpus3 progress event, total committed:382717112, progress insts committed: 11389258, IPC: 01.13779
16938484201470: Event_285: system.switch_cpus3 progress event, total committed:394455284, progress insts committed: 11738172, IPC: 01.17264
16938484201470: Event_284: system.switch_cpus2 progress event, total committed:395868004, progress insts committed: 11554386, IPC: 01.15428
16938484201470: Event_283: system.switch_cpus1 progress event, total committed:393894246, progress insts committed: 11565529, IPC: 001.1554
16938484201470: Event_282: system.switch_cpus0 progress event, total committed:394814885, progress insts committed: 11588311, IPC: 01.15767
16941817534803: Event_282: system.switch_cpus0 progress event, total committed:406333155, progress insts committed: 11518270, IPC: 01.15068
16941817534803: Event_283: system.switch_cpus1 progress event, total committed:405200065, progress insts committed: 11305819, IPC: 01.12945
16941817534803: Event_284: system.switch_cpus2 progress event, total committed:407122855, progress insts committed: 11254851, IPC: 01.12436
16941817534803: Event_285: system.switch_cpus3 progress event, total committed:406306428, progress insts committed: 11851144, IPC: 01.18393
16945150868136: Event_285: system.switch_cpus3 progress event, total committed:418126773, progress insts committed: 11820345, IPC: 01.18085
16945150868136: Event_284: system.switch_cpus2 progress event, total committed:418312302, progress insts committed: 11189447, IPC: 01.11783
16945150868136: Event_283: system.switch_cpus1 progress event, total committed:416597100, progress insts committed: 11397035, IPC: 01.13856
16945150868136: Event_282: system.switch_cpus0 progress event, total committed:418135108, progress insts committed: 11801953, IPC: 01.17902
16948484201469: Event_282: system.switch_cpus0 progress event, total committed:429760594, progress insts committed: 11625486, IPC: 01.16139
16948484201469: Event_283: system.switch_cpus1 progress event, total committed:428247647, progress insts committed: 11650547, IPC: 01.16389
16948484201469: Event_284: system.switch_cpus2 progress event, total committed:430165065, progress insts committed: 11852763, IPC: 01.18409
16948484201469: Event_285: system.switch_cpus3 progress event, total committed:429716868, progress insts committed: 11590095, IPC: 01.15785
Exiting @ tick 16948630036035 because a thread reached the max instruction count
