
---------- Begin Simulation Statistics ----------
final_tick                               13975273484253                       # Number of ticks from beginning of simulation (restored from checkpoints and never reset)
host_inst_rate                                 192523                       # Simulator instruction rate (inst/s)
host_mem_usage                               17257260                       # Number of bytes of host memory used
host_op_rate                                   290216                       # Simulator op (including micro ops) rate (op/s)
host_seconds                                  4046.48                       # Real time elapsed on the host
host_tick_rate                                7442270                       # Simulator tick rate (ticks/s)
sim_freq                                 1000000000000                       # Frequency of simulated ticks
sim_insts                                   779040594                       # Number of instructions simulated
sim_ops                                    1174351493                       # Number of ops (including micro ops) simulated
sim_seconds                                  0.030115                       # Number of seconds simulated
sim_ticks                                 30115000521                       # Number of ticks simulated
system.cpu0.Branches                                2                       # Number of branches fetched
system.cpu0.committedInsts                         16                       # Number of instructions committed
system.cpu0.committedOps                           26                       # Number of ops (including micro ops) committed
system.cpu0.idle_fraction                           0                       # Percentage of idle cycles
system.cpu0.l2bus.snoop_filter.hit_multi_requests         9852                       # Number of requests hitting in the snoop filter with multiple (>1) holders of the requested data.
system.cpu0.l2bus.snoop_filter.hit_multi_snoops            0                       # Number of snoops hitting in the snoop filter with multiple (>1) holders of the requested data.
system.cpu0.l2bus.snoop_filter.hit_single_requests      1563773                       # Number of requests hitting in the snoop filter with a single holder of the requested data.
system.cpu0.l2bus.snoop_filter.hit_single_snoops            1                       # Number of snoops hitting in the snoop filter with a single holder of the requested data.
system.cpu0.l2bus.snoop_filter.tot_requests      3128544                       # Total number of requests made to the snoop filter.
system.cpu0.l2bus.snoop_filter.tot_snoops            1                       # Total number of snoops made to the snoop filter.
system.cpu0.mmucache.mmubus.snoop_filter.hit_multi_requests            0                       # Number of requests hitting in the snoop filter with multiple (>1) holders of the requested data.
system.cpu0.mmucache.mmubus.snoop_filter.hit_multi_snoops            0                       # Number of snoops hitting in the snoop filter with multiple (>1) holders of the requested data.
system.cpu0.mmucache.mmubus.snoop_filter.hit_single_requests            0                       # Number of requests hitting in the snoop filter with a single holder of the requested data.
system.cpu0.mmucache.mmubus.snoop_filter.hit_single_snoops            0                       # Number of snoops hitting in the snoop filter with a single holder of the requested data.
system.cpu0.mmucache.mmubus.snoop_filter.tot_requests            0                       # Total number of requests made to the snoop filter.
system.cpu0.mmucache.mmubus.snoop_filter.tot_snoops            0                       # Total number of snoops made to the snoop filter.
system.cpu0.not_idle_fraction                       1                       # Percentage of non-idle cycles
system.cpu0.numCycles                              31                       # number of cpu cycles simulated
system.cpu0.numWorkItemsCompleted                   0                       # number of work items this cpu completed
system.cpu0.numWorkItemsStarted                     0                       # number of work items this cpu started
system.cpu0.num_busy_cycles                        31                       # Number of busy cycles
system.cpu0.num_cc_register_reads                   7                       # number of times the CC registers were read
system.cpu0.num_cc_register_writes                  6                       # number of times the CC registers were written
system.cpu0.num_conditional_control_insts            1                       # number of instructions that are conditional controls
system.cpu0.num_fp_alu_accesses                     6                       # Number of float alu accesses
system.cpu0.num_fp_insts                            6                       # number of float instructions
system.cpu0.num_fp_register_reads                   6                       # number of times the floating registers were read
system.cpu0.num_fp_register_writes                  6                       # number of times the floating registers were written
system.cpu0.num_func_calls                          1                       # number of times a function call or return occured
system.cpu0.num_idle_cycles                         0                       # Number of idle cycles
system.cpu0.num_int_alu_accesses                   24                       # Number of integer alu accesses
system.cpu0.num_int_insts                          24                       # number of integer instructions
system.cpu0.num_int_register_reads                 57                       # number of times the integer registers were read
system.cpu0.num_int_register_writes                15                       # number of times the integer registers were written
system.cpu0.num_load_insts                          8                       # Number of load instructions
system.cpu0.num_mem_refs                           11                       # number of memory refs
system.cpu0.num_store_insts                         3                       # Number of store instructions
system.cpu0.num_vec_alu_accesses                    0                       # Number of vector alu accesses
system.cpu0.num_vec_insts                           0                       # number of vector instructions
system.cpu0.num_vec_register_reads                  0                       # number of times the vector registers were read
system.cpu0.num_vec_register_writes                 0                       # number of times the vector registers were written
system.cpu0.op_class::No_OpClass                    0      0.00%      0.00% # Class of executed instruction
system.cpu0.op_class::IntAlu                       13     50.00%     50.00% # Class of executed instruction
system.cpu0.op_class::IntMult                       0      0.00%     50.00% # Class of executed instruction
system.cpu0.op_class::IntDiv                        0      0.00%     50.00% # Class of executed instruction
system.cpu0.op_class::FloatAdd                      0      0.00%     50.00% # Class of executed instruction
system.cpu0.op_class::FloatCmp                      0      0.00%     50.00% # Class of executed instruction
system.cpu0.op_class::FloatCvt                      0      0.00%     50.00% # Class of executed instruction
system.cpu0.op_class::FloatMult                     0      0.00%     50.00% # Class of executed instruction
system.cpu0.op_class::FloatMultAcc                  0      0.00%     50.00% # Class of executed instruction
system.cpu0.op_class::FloatDiv                      0      0.00%     50.00% # Class of executed instruction
system.cpu0.op_class::FloatMisc                     0      0.00%     50.00% # Class of executed instruction
system.cpu0.op_class::FloatSqrt                     0      0.00%     50.00% # Class of executed instruction
system.cpu0.op_class::SimdAdd                       0      0.00%     50.00% # Class of executed instruction
system.cpu0.op_class::SimdAddAcc                    0      0.00%     50.00% # Class of executed instruction
system.cpu0.op_class::SimdAlu                       0      0.00%     50.00% # Class of executed instruction
system.cpu0.op_class::SimdCmp                       0      0.00%     50.00% # Class of executed instruction
system.cpu0.op_class::SimdCvt                       0      0.00%     50.00% # Class of executed instruction
system.cpu0.op_class::SimdMisc                      0      0.00%     50.00% # Class of executed instruction
system.cpu0.op_class::SimdMult                      0      0.00%     50.00% # Class of executed instruction
system.cpu0.op_class::SimdMultAcc                   0      0.00%     50.00% # Class of executed instruction
system.cpu0.op_class::SimdShift                     0      0.00%     50.00% # Class of executed instruction
system.cpu0.op_class::SimdShiftAcc                  0      0.00%     50.00% # Class of executed instruction
system.cpu0.op_class::SimdDiv                       0      0.00%     50.00% # Class of executed instruction
system.cpu0.op_class::SimdSqrt                      0      0.00%     50.00% # Class of executed instruction
system.cpu0.op_class::SimdFloatAdd                  0      0.00%     50.00% # Class of executed instruction
system.cpu0.op_class::SimdFloatAlu                  0      0.00%     50.00% # Class of executed instruction
system.cpu0.op_class::SimdFloatCmp                  0      0.00%     50.00% # Class of executed instruction
system.cpu0.op_class::SimdFloatCvt                  0      0.00%     50.00% # Class of executed instruction
system.cpu0.op_class::SimdFloatDiv                  0      0.00%     50.00% # Class of executed instruction
system.cpu0.op_class::SimdFloatMisc                 0      0.00%     50.00% # Class of executed instruction
system.cpu0.op_class::SimdFloatMult                 2      7.69%     57.69% # Class of executed instruction
system.cpu0.op_class::SimdFloatMultAcc              0      0.00%     57.69% # Class of executed instruction
system.cpu0.op_class::SimdFloatSqrt                 0      0.00%     57.69% # Class of executed instruction
system.cpu0.op_class::SimdReduceAdd                 0      0.00%     57.69% # Class of executed instruction
system.cpu0.op_class::SimdReduceAlu                 0      0.00%     57.69% # Class of executed instruction
system.cpu0.op_class::SimdReduceCmp                 0      0.00%     57.69% # Class of executed instruction
system.cpu0.op_class::SimdFloatReduceAdd            0      0.00%     57.69% # Class of executed instruction
system.cpu0.op_class::SimdFloatReduceCmp            0      0.00%     57.69% # Class of executed instruction
system.cpu0.op_class::SimdAes                       0      0.00%     57.69% # Class of executed instruction
system.cpu0.op_class::SimdAesMix                    0      0.00%     57.69% # Class of executed instruction
system.cpu0.op_class::SimdSha1Hash                  0      0.00%     57.69% # Class of executed instruction
system.cpu0.op_class::SimdSha1Hash2                 0      0.00%     57.69% # Class of executed instruction
system.cpu0.op_class::SimdSha256Hash                0      0.00%     57.69% # Class of executed instruction
system.cpu0.op_class::SimdSha256Hash2               0      0.00%     57.69% # Class of executed instruction
system.cpu0.op_class::SimdShaSigma2                 0      0.00%     57.69% # Class of executed instruction
system.cpu0.op_class::SimdShaSigma3                 0      0.00%     57.69% # Class of executed instruction
system.cpu0.op_class::SimdPredAlu                   0      0.00%     57.69% # Class of executed instruction
system.cpu0.op_class::MemRead                       4     15.38%     73.08% # Class of executed instruction
system.cpu0.op_class::MemWrite                      3     11.54%     84.62% # Class of executed instruction
system.cpu0.op_class::FloatMemRead                  4     15.38%    100.00% # Class of executed instruction
system.cpu0.op_class::FloatMemWrite                 0      0.00%    100.00% # Class of executed instruction
system.cpu0.op_class::IprAccess                     0      0.00%    100.00% # Class of executed instruction
system.cpu0.op_class::InstPrefetch                  0      0.00%    100.00% # Class of executed instruction
system.cpu0.op_class::total                        26                       # Class of executed instruction
system.cpu0.workload.numSyscalls                    2                       # Number of system calls
system.cpu1.Branches                                1                       # Number of branches fetched
system.cpu1.committedInsts                         16                       # Number of instructions committed
system.cpu1.committedOps                           21                       # Number of ops (including micro ops) committed
system.cpu1.idle_fraction                           0                       # Percentage of idle cycles
system.cpu1.l2bus.snoop_filter.hit_multi_requests          116                       # Number of requests hitting in the snoop filter with multiple (>1) holders of the requested data.
system.cpu1.l2bus.snoop_filter.hit_multi_snoops            0                       # Number of snoops hitting in the snoop filter with multiple (>1) holders of the requested data.
system.cpu1.l2bus.snoop_filter.hit_single_requests      1272948                       # Number of requests hitting in the snoop filter with a single holder of the requested data.
system.cpu1.l2bus.snoop_filter.hit_single_snoops          418                       # Number of snoops hitting in the snoop filter with a single holder of the requested data.
system.cpu1.l2bus.snoop_filter.tot_requests      2541726                       # Total number of requests made to the snoop filter.
system.cpu1.l2bus.snoop_filter.tot_snoops          418                       # Total number of snoops made to the snoop filter.
system.cpu1.mmucache.mmubus.snoop_filter.hit_multi_requests            0                       # Number of requests hitting in the snoop filter with multiple (>1) holders of the requested data.
system.cpu1.mmucache.mmubus.snoop_filter.hit_multi_snoops            0                       # Number of snoops hitting in the snoop filter with multiple (>1) holders of the requested data.
system.cpu1.mmucache.mmubus.snoop_filter.hit_single_requests            0                       # Number of requests hitting in the snoop filter with a single holder of the requested data.
system.cpu1.mmucache.mmubus.snoop_filter.hit_single_snoops            0                       # Number of snoops hitting in the snoop filter with a single holder of the requested data.
system.cpu1.mmucache.mmubus.snoop_filter.tot_requests            0                       # Total number of requests made to the snoop filter.
system.cpu1.mmucache.mmubus.snoop_filter.tot_snoops            0                       # Total number of snoops made to the snoop filter.
system.cpu1.not_idle_fraction                       1                       # Percentage of non-idle cycles
system.cpu1.numCycles                              30                       # number of cpu cycles simulated
system.cpu1.numWorkItemsCompleted                   0                       # number of work items this cpu completed
system.cpu1.numWorkItemsStarted                     0                       # number of work items this cpu started
system.cpu1.num_busy_cycles                        30                       # Number of busy cycles
system.cpu1.num_cc_register_reads                   6                       # number of times the CC registers were read
system.cpu1.num_cc_register_writes                  6                       # number of times the CC registers were written
system.cpu1.num_conditional_control_insts            1                       # number of instructions that are conditional controls
system.cpu1.num_fp_alu_accesses                    10                       # Number of float alu accesses
system.cpu1.num_fp_insts                           10                       # number of float instructions
system.cpu1.num_fp_register_reads                  10                       # number of times the floating registers were read
system.cpu1.num_fp_register_writes                  6                       # number of times the floating registers were written
system.cpu1.num_func_calls                          0                       # number of times a function call or return occured
system.cpu1.num_idle_cycles                         0                       # Number of idle cycles
system.cpu1.num_int_alu_accesses                   19                       # Number of integer alu accesses
system.cpu1.num_int_insts                          19                       # number of integer instructions
system.cpu1.num_int_register_reads                 42                       # number of times the integer registers were read
system.cpu1.num_int_register_writes                10                       # number of times the integer registers were written
system.cpu1.num_load_insts                          6                       # Number of load instructions
system.cpu1.num_mem_refs                           10                       # number of memory refs
system.cpu1.num_store_insts                         4                       # Number of store instructions
system.cpu1.num_vec_alu_accesses                    0                       # Number of vector alu accesses
system.cpu1.num_vec_insts                           0                       # number of vector instructions
system.cpu1.num_vec_register_reads                  0                       # number of times the vector registers were read
system.cpu1.num_vec_register_writes                 0                       # number of times the vector registers were written
system.cpu1.op_class::No_OpClass                    0      0.00%      0.00% # Class of executed instruction
system.cpu1.op_class::IntAlu                        9     42.86%     42.86% # Class of executed instruction
system.cpu1.op_class::IntMult                       0      0.00%     42.86% # Class of executed instruction
system.cpu1.op_class::IntDiv                        0      0.00%     42.86% # Class of executed instruction
system.cpu1.op_class::FloatAdd                      0      0.00%     42.86% # Class of executed instruction
system.cpu1.op_class::FloatCmp                      0      0.00%     42.86% # Class of executed instruction
system.cpu1.op_class::FloatCvt                      0      0.00%     42.86% # Class of executed instruction
system.cpu1.op_class::FloatMult                     0      0.00%     42.86% # Class of executed instruction
system.cpu1.op_class::FloatMultAcc                  0      0.00%     42.86% # Class of executed instruction
system.cpu1.op_class::FloatDiv                      0      0.00%     42.86% # Class of executed instruction
system.cpu1.op_class::FloatMisc                     0      0.00%     42.86% # Class of executed instruction
system.cpu1.op_class::FloatSqrt                     0      0.00%     42.86% # Class of executed instruction
system.cpu1.op_class::SimdAdd                       0      0.00%     42.86% # Class of executed instruction
system.cpu1.op_class::SimdAddAcc                    0      0.00%     42.86% # Class of executed instruction
system.cpu1.op_class::SimdAlu                       0      0.00%     42.86% # Class of executed instruction
system.cpu1.op_class::SimdCmp                       0      0.00%     42.86% # Class of executed instruction
system.cpu1.op_class::SimdCvt                       0      0.00%     42.86% # Class of executed instruction
system.cpu1.op_class::SimdMisc                      0      0.00%     42.86% # Class of executed instruction
system.cpu1.op_class::SimdMult                      0      0.00%     42.86% # Class of executed instruction
system.cpu1.op_class::SimdMultAcc                   0      0.00%     42.86% # Class of executed instruction
system.cpu1.op_class::SimdShift                     0      0.00%     42.86% # Class of executed instruction
system.cpu1.op_class::SimdShiftAcc                  0      0.00%     42.86% # Class of executed instruction
system.cpu1.op_class::SimdDiv                       0      0.00%     42.86% # Class of executed instruction
system.cpu1.op_class::SimdSqrt                      0      0.00%     42.86% # Class of executed instruction
system.cpu1.op_class::SimdFloatAdd                  2      9.52%     52.38% # Class of executed instruction
system.cpu1.op_class::SimdFloatAlu                  0      0.00%     52.38% # Class of executed instruction
system.cpu1.op_class::SimdFloatCmp                  0      0.00%     52.38% # Class of executed instruction
system.cpu1.op_class::SimdFloatCvt                  0      0.00%     52.38% # Class of executed instruction
system.cpu1.op_class::SimdFloatDiv                  0      0.00%     52.38% # Class of executed instruction
system.cpu1.op_class::SimdFloatMisc                 0      0.00%     52.38% # Class of executed instruction
system.cpu1.op_class::SimdFloatMult                 0      0.00%     52.38% # Class of executed instruction
system.cpu1.op_class::SimdFloatMultAcc              0      0.00%     52.38% # Class of executed instruction
system.cpu1.op_class::SimdFloatSqrt                 0      0.00%     52.38% # Class of executed instruction
system.cpu1.op_class::SimdReduceAdd                 0      0.00%     52.38% # Class of executed instruction
system.cpu1.op_class::SimdReduceAlu                 0      0.00%     52.38% # Class of executed instruction
system.cpu1.op_class::SimdReduceCmp                 0      0.00%     52.38% # Class of executed instruction
system.cpu1.op_class::SimdFloatReduceAdd            0      0.00%     52.38% # Class of executed instruction
system.cpu1.op_class::SimdFloatReduceCmp            0      0.00%     52.38% # Class of executed instruction
system.cpu1.op_class::SimdAes                       0      0.00%     52.38% # Class of executed instruction
system.cpu1.op_class::SimdAesMix                    0      0.00%     52.38% # Class of executed instruction
system.cpu1.op_class::SimdSha1Hash                  0      0.00%     52.38% # Class of executed instruction
system.cpu1.op_class::SimdSha1Hash2                 0      0.00%     52.38% # Class of executed instruction
system.cpu1.op_class::SimdSha256Hash                0      0.00%     52.38% # Class of executed instruction
system.cpu1.op_class::SimdSha256Hash2               0      0.00%     52.38% # Class of executed instruction
system.cpu1.op_class::SimdShaSigma2                 0      0.00%     52.38% # Class of executed instruction
system.cpu1.op_class::SimdShaSigma3                 0      0.00%     52.38% # Class of executed instruction
system.cpu1.op_class::SimdPredAlu                   0      0.00%     52.38% # Class of executed instruction
system.cpu1.op_class::MemRead                       2      9.52%     61.90% # Class of executed instruction
system.cpu1.op_class::MemWrite                      0      0.00%     61.90% # Class of executed instruction
system.cpu1.op_class::FloatMemRead                  4     19.05%     80.95% # Class of executed instruction
system.cpu1.op_class::FloatMemWrite                 4     19.05%    100.00% # Class of executed instruction
system.cpu1.op_class::IprAccess                     0      0.00%    100.00% # Class of executed instruction
system.cpu1.op_class::InstPrefetch                  0      0.00%    100.00% # Class of executed instruction
system.cpu1.op_class::total                        21                       # Class of executed instruction
system.cpu1.workload.numSyscalls                    0                       # Number of system calls
system.cpu2.committedInsts                         17                       # Number of instructions committed
system.cpu2.committedOps                           20                       # Number of ops (including micro ops) committed
system.cpu2.idle_fraction                           0                       # Percentage of idle cycles
system.cpu2.l2bus.snoop_filter.hit_multi_requests            0                       # Number of requests hitting in the snoop filter with multiple (>1) holders of the requested data.
system.cpu2.l2bus.snoop_filter.hit_multi_snoops            0                       # Number of snoops hitting in the snoop filter with multiple (>1) holders of the requested data.
system.cpu2.l2bus.snoop_filter.hit_single_requests      1228290                       # Number of requests hitting in the snoop filter with a single holder of the requested data.
system.cpu2.l2bus.snoop_filter.hit_single_snoops          884                       # Number of snoops hitting in the snoop filter with a single holder of the requested data.
system.cpu2.l2bus.snoop_filter.tot_requests      2440813                       # Total number of requests made to the snoop filter.
system.cpu2.l2bus.snoop_filter.tot_snoops          884                       # Total number of snoops made to the snoop filter.
system.cpu2.mmucache.mmubus.snoop_filter.hit_multi_requests            0                       # Number of requests hitting in the snoop filter with multiple (>1) holders of the requested data.
system.cpu2.mmucache.mmubus.snoop_filter.hit_multi_snoops            0                       # Number of snoops hitting in the snoop filter with multiple (>1) holders of the requested data.
system.cpu2.mmucache.mmubus.snoop_filter.hit_single_requests            0                       # Number of requests hitting in the snoop filter with a single holder of the requested data.
system.cpu2.mmucache.mmubus.snoop_filter.hit_single_snoops            0                       # Number of snoops hitting in the snoop filter with a single holder of the requested data.
system.cpu2.mmucache.mmubus.snoop_filter.tot_requests            0                       # Total number of requests made to the snoop filter.
system.cpu2.mmucache.mmubus.snoop_filter.tot_snoops            0                       # Total number of snoops made to the snoop filter.
system.cpu2.not_idle_fraction                       1                       # Percentage of non-idle cycles
system.cpu2.numCycles                              30                       # number of cpu cycles simulated
system.cpu2.numWorkItemsCompleted                   0                       # number of work items this cpu completed
system.cpu2.numWorkItemsStarted                     0                       # number of work items this cpu started
system.cpu2.num_busy_cycles                        30                       # Number of busy cycles
system.cpu2.num_cc_register_reads                   1                       # number of times the CC registers were read
system.cpu2.num_cc_register_writes                  4                       # number of times the CC registers were written
system.cpu2.num_conditional_control_insts            0                       # number of instructions that are conditional controls
system.cpu2.num_fp_alu_accesses                    10                       # Number of float alu accesses
system.cpu2.num_fp_insts                           10                       # number of float instructions
system.cpu2.num_fp_register_reads                  21                       # number of times the floating registers were read
system.cpu2.num_fp_register_writes                  9                       # number of times the floating registers were written
system.cpu2.num_func_calls                          0                       # number of times a function call or return occured
system.cpu2.num_idle_cycles                         0                       # Number of idle cycles
system.cpu2.num_int_alu_accesses                   13                       # Number of integer alu accesses
system.cpu2.num_int_insts                          13                       # number of integer instructions
system.cpu2.num_int_register_reads                 32                       # number of times the integer registers were read
system.cpu2.num_int_register_writes                10                       # number of times the integer registers were written
system.cpu2.num_load_insts                          8                       # Number of load instructions
system.cpu2.num_mem_refs                            9                       # number of memory refs
system.cpu2.num_store_insts                         1                       # Number of store instructions
system.cpu2.num_vec_alu_accesses                    0                       # Number of vector alu accesses
system.cpu2.num_vec_insts                           0                       # number of vector instructions
system.cpu2.num_vec_register_reads                  0                       # number of times the vector registers were read
system.cpu2.num_vec_register_writes                 0                       # number of times the vector registers were written
system.cpu2.op_class::No_OpClass                    0      0.00%      0.00% # Class of executed instruction
system.cpu2.op_class::IntAlu                        5     25.00%     25.00% # Class of executed instruction
system.cpu2.op_class::IntMult                       0      0.00%     25.00% # Class of executed instruction
system.cpu2.op_class::IntDiv                        0      0.00%     25.00% # Class of executed instruction
system.cpu2.op_class::FloatAdd                      0      0.00%     25.00% # Class of executed instruction
system.cpu2.op_class::FloatCmp                      0      0.00%     25.00% # Class of executed instruction
system.cpu2.op_class::FloatCvt                      0      0.00%     25.00% # Class of executed instruction
system.cpu2.op_class::FloatMult                     0      0.00%     25.00% # Class of executed instruction
system.cpu2.op_class::FloatMultAcc                  0      0.00%     25.00% # Class of executed instruction
system.cpu2.op_class::FloatDiv                      0      0.00%     25.00% # Class of executed instruction
system.cpu2.op_class::FloatMisc                     0      0.00%     25.00% # Class of executed instruction
system.cpu2.op_class::FloatSqrt                     0      0.00%     25.00% # Class of executed instruction
system.cpu2.op_class::SimdAdd                       0      0.00%     25.00% # Class of executed instruction
system.cpu2.op_class::SimdAddAcc                    0      0.00%     25.00% # Class of executed instruction
system.cpu2.op_class::SimdAlu                       0      0.00%     25.00% # Class of executed instruction
system.cpu2.op_class::SimdCmp                       0      0.00%     25.00% # Class of executed instruction
system.cpu2.op_class::SimdCvt                       0      0.00%     25.00% # Class of executed instruction
system.cpu2.op_class::SimdMisc                      0      0.00%     25.00% # Class of executed instruction
system.cpu2.op_class::SimdMult                      0      0.00%     25.00% # Class of executed instruction
system.cpu2.op_class::SimdMultAcc                   0      0.00%     25.00% # Class of executed instruction
system.cpu2.op_class::SimdShift                     0      0.00%     25.00% # Class of executed instruction
system.cpu2.op_class::SimdShiftAcc                  0      0.00%     25.00% # Class of executed instruction
system.cpu2.op_class::SimdDiv                       0      0.00%     25.00% # Class of executed instruction
system.cpu2.op_class::SimdSqrt                      0      0.00%     25.00% # Class of executed instruction
system.cpu2.op_class::SimdFloatAdd                  2     10.00%     35.00% # Class of executed instruction
system.cpu2.op_class::SimdFloatAlu                  0      0.00%     35.00% # Class of executed instruction
system.cpu2.op_class::SimdFloatCmp                  0      0.00%     35.00% # Class of executed instruction
system.cpu2.op_class::SimdFloatCvt                  0      0.00%     35.00% # Class of executed instruction
system.cpu2.op_class::SimdFloatDiv                  1      5.00%     40.00% # Class of executed instruction
system.cpu2.op_class::SimdFloatMisc                 0      0.00%     40.00% # Class of executed instruction
system.cpu2.op_class::SimdFloatMult                 3     15.00%     55.00% # Class of executed instruction
system.cpu2.op_class::SimdFloatMultAcc              0      0.00%     55.00% # Class of executed instruction
system.cpu2.op_class::SimdFloatSqrt                 0      0.00%     55.00% # Class of executed instruction
system.cpu2.op_class::SimdReduceAdd                 0      0.00%     55.00% # Class of executed instruction
system.cpu2.op_class::SimdReduceAlu                 0      0.00%     55.00% # Class of executed instruction
system.cpu2.op_class::SimdReduceCmp                 0      0.00%     55.00% # Class of executed instruction
system.cpu2.op_class::SimdFloatReduceAdd            0      0.00%     55.00% # Class of executed instruction
system.cpu2.op_class::SimdFloatReduceCmp            0      0.00%     55.00% # Class of executed instruction
system.cpu2.op_class::SimdAes                       0      0.00%     55.00% # Class of executed instruction
system.cpu2.op_class::SimdAesMix                    0      0.00%     55.00% # Class of executed instruction
system.cpu2.op_class::SimdSha1Hash                  0      0.00%     55.00% # Class of executed instruction
system.cpu2.op_class::SimdSha1Hash2                 0      0.00%     55.00% # Class of executed instruction
system.cpu2.op_class::SimdSha256Hash                0      0.00%     55.00% # Class of executed instruction
system.cpu2.op_class::SimdSha256Hash2               0      0.00%     55.00% # Class of executed instruction
system.cpu2.op_class::SimdShaSigma2                 0      0.00%     55.00% # Class of executed instruction
system.cpu2.op_class::SimdShaSigma3                 0      0.00%     55.00% # Class of executed instruction
system.cpu2.op_class::SimdPredAlu                   0      0.00%     55.00% # Class of executed instruction
system.cpu2.op_class::MemRead                       6     30.00%     85.00% # Class of executed instruction
system.cpu2.op_class::MemWrite                      0      0.00%     85.00% # Class of executed instruction
system.cpu2.op_class::FloatMemRead                  2     10.00%     95.00% # Class of executed instruction
system.cpu2.op_class::FloatMemWrite                 1      5.00%    100.00% # Class of executed instruction
system.cpu2.op_class::IprAccess                     0      0.00%    100.00% # Class of executed instruction
system.cpu2.op_class::InstPrefetch                  0      0.00%    100.00% # Class of executed instruction
system.cpu2.op_class::total                        20                       # Class of executed instruction
system.cpu2.workload.numSyscalls                    0                       # Number of system calls
system.cpu3.committedInsts                         12                       # Number of instructions committed
system.cpu3.committedOps                           22                       # Number of ops (including micro ops) committed
system.cpu3.idle_fraction                           0                       # Percentage of idle cycles
system.cpu3.l2bus.snoop_filter.hit_multi_requests            3                       # Number of requests hitting in the snoop filter with multiple (>1) holders of the requested data.
system.cpu3.l2bus.snoop_filter.hit_multi_snoops            0                       # Number of snoops hitting in the snoop filter with multiple (>1) holders of the requested data.
system.cpu3.l2bus.snoop_filter.hit_single_requests      1104701                       # Number of requests hitting in the snoop filter with a single holder of the requested data.
system.cpu3.l2bus.snoop_filter.hit_single_snoops         2836                       # Number of snoops hitting in the snoop filter with a single holder of the requested data.
system.cpu3.l2bus.snoop_filter.tot_requests      2210053                       # Total number of requests made to the snoop filter.
system.cpu3.l2bus.snoop_filter.tot_snoops         2836                       # Total number of snoops made to the snoop filter.
system.cpu3.mmucache.mmubus.snoop_filter.hit_multi_requests            0                       # Number of requests hitting in the snoop filter with multiple (>1) holders of the requested data.
system.cpu3.mmucache.mmubus.snoop_filter.hit_multi_snoops            0                       # Number of snoops hitting in the snoop filter with multiple (>1) holders of the requested data.
system.cpu3.mmucache.mmubus.snoop_filter.hit_single_requests            0                       # Number of requests hitting in the snoop filter with a single holder of the requested data.
system.cpu3.mmucache.mmubus.snoop_filter.hit_single_snoops            0                       # Number of snoops hitting in the snoop filter with a single holder of the requested data.
system.cpu3.mmucache.mmubus.snoop_filter.tot_requests            0                       # Total number of requests made to the snoop filter.
system.cpu3.mmucache.mmubus.snoop_filter.tot_snoops            0                       # Total number of snoops made to the snoop filter.
system.cpu3.not_idle_fraction                       1                       # Percentage of non-idle cycles
system.cpu3.numCycles                              30                       # number of cpu cycles simulated
system.cpu3.numWorkItemsCompleted                   0                       # number of work items this cpu completed
system.cpu3.numWorkItemsStarted                     0                       # number of work items this cpu started
system.cpu3.num_busy_cycles                        30                       # Number of busy cycles
system.cpu3.num_conditional_control_insts            0                       # number of instructions that are conditional controls
system.cpu3.num_fp_alu_accesses                    17                       # Number of float alu accesses
system.cpu3.num_fp_insts                           17                       # number of float instructions
system.cpu3.num_fp_register_reads                  36                       # number of times the floating registers were read
system.cpu3.num_fp_register_writes                 17                       # number of times the floating registers were written
system.cpu3.num_func_calls                          0                       # number of times a function call or return occured
system.cpu3.num_idle_cycles                         0                       # Number of idle cycles
system.cpu3.num_int_alu_accesses                   10                       # Number of integer alu accesses
system.cpu3.num_int_insts                          10                       # number of integer instructions
system.cpu3.num_int_register_reads                 20                       # number of times the integer registers were read
system.cpu3.num_int_register_writes                 5                       # number of times the integer registers were written
system.cpu3.num_load_insts                          5                       # Number of load instructions
system.cpu3.num_mem_refs                            5                       # number of memory refs
system.cpu3.num_store_insts                         0                       # Number of store instructions
system.cpu3.num_vec_alu_accesses                    0                       # Number of vector alu accesses
system.cpu3.num_vec_insts                           0                       # number of vector instructions
system.cpu3.num_vec_register_reads                  0                       # number of times the vector registers were read
system.cpu3.num_vec_register_writes                 0                       # number of times the vector registers were written
system.cpu3.op_class::No_OpClass                    0      0.00%      0.00% # Class of executed instruction
system.cpu3.op_class::IntAlu                        5     22.73%     22.73% # Class of executed instruction
system.cpu3.op_class::IntMult                       0      0.00%     22.73% # Class of executed instruction
system.cpu3.op_class::IntDiv                        0      0.00%     22.73% # Class of executed instruction
system.cpu3.op_class::FloatAdd                      0      0.00%     22.73% # Class of executed instruction
system.cpu3.op_class::FloatCmp                      0      0.00%     22.73% # Class of executed instruction
system.cpu3.op_class::FloatCvt                      0      0.00%     22.73% # Class of executed instruction
system.cpu3.op_class::FloatMult                     0      0.00%     22.73% # Class of executed instruction
system.cpu3.op_class::FloatMultAcc                  0      0.00%     22.73% # Class of executed instruction
system.cpu3.op_class::FloatDiv                      0      0.00%     22.73% # Class of executed instruction
system.cpu3.op_class::FloatMisc                     0      0.00%     22.73% # Class of executed instruction
system.cpu3.op_class::FloatSqrt                     0      0.00%     22.73% # Class of executed instruction
system.cpu3.op_class::SimdAdd                       0      0.00%     22.73% # Class of executed instruction
system.cpu3.op_class::SimdAddAcc                    0      0.00%     22.73% # Class of executed instruction
system.cpu3.op_class::SimdAlu                       0      0.00%     22.73% # Class of executed instruction
system.cpu3.op_class::SimdCmp                       0      0.00%     22.73% # Class of executed instruction
system.cpu3.op_class::SimdCvt                       0      0.00%     22.73% # Class of executed instruction
system.cpu3.op_class::SimdMisc                      0      0.00%     22.73% # Class of executed instruction
system.cpu3.op_class::SimdMult                      0      0.00%     22.73% # Class of executed instruction
system.cpu3.op_class::SimdMultAcc                   0      0.00%     22.73% # Class of executed instruction
system.cpu3.op_class::SimdShift                     0      0.00%     22.73% # Class of executed instruction
system.cpu3.op_class::SimdShiftAcc                  0      0.00%     22.73% # Class of executed instruction
system.cpu3.op_class::SimdDiv                       0      0.00%     22.73% # Class of executed instruction
system.cpu3.op_class::SimdSqrt                      0      0.00%     22.73% # Class of executed instruction
system.cpu3.op_class::SimdFloatAdd                  5     22.73%     45.45% # Class of executed instruction
system.cpu3.op_class::SimdFloatAlu                  0      0.00%     45.45% # Class of executed instruction
system.cpu3.op_class::SimdFloatCmp                  0      0.00%     45.45% # Class of executed instruction
system.cpu3.op_class::SimdFloatCvt                  0      0.00%     45.45% # Class of executed instruction
system.cpu3.op_class::SimdFloatDiv                  0      0.00%     45.45% # Class of executed instruction
system.cpu3.op_class::SimdFloatMisc                 0      0.00%     45.45% # Class of executed instruction
system.cpu3.op_class::SimdFloatMult                 7     31.82%     77.27% # Class of executed instruction
system.cpu3.op_class::SimdFloatMultAcc              0      0.00%     77.27% # Class of executed instruction
system.cpu3.op_class::SimdFloatSqrt                 0      0.00%     77.27% # Class of executed instruction
system.cpu3.op_class::SimdReduceAdd                 0      0.00%     77.27% # Class of executed instruction
system.cpu3.op_class::SimdReduceAlu                 0      0.00%     77.27% # Class of executed instruction
system.cpu3.op_class::SimdReduceCmp                 0      0.00%     77.27% # Class of executed instruction
system.cpu3.op_class::SimdFloatReduceAdd            0      0.00%     77.27% # Class of executed instruction
system.cpu3.op_class::SimdFloatReduceCmp            0      0.00%     77.27% # Class of executed instruction
system.cpu3.op_class::SimdAes                       0      0.00%     77.27% # Class of executed instruction
system.cpu3.op_class::SimdAesMix                    0      0.00%     77.27% # Class of executed instruction
system.cpu3.op_class::SimdSha1Hash                  0      0.00%     77.27% # Class of executed instruction
system.cpu3.op_class::SimdSha1Hash2                 0      0.00%     77.27% # Class of executed instruction
system.cpu3.op_class::SimdSha256Hash                0      0.00%     77.27% # Class of executed instruction
system.cpu3.op_class::SimdSha256Hash2               0      0.00%     77.27% # Class of executed instruction
system.cpu3.op_class::SimdShaSigma2                 0      0.00%     77.27% # Class of executed instruction
system.cpu3.op_class::SimdShaSigma3                 0      0.00%     77.27% # Class of executed instruction
system.cpu3.op_class::SimdPredAlu                   0      0.00%     77.27% # Class of executed instruction
system.cpu3.op_class::MemRead                       0      0.00%     77.27% # Class of executed instruction
system.cpu3.op_class::MemWrite                      0      0.00%     77.27% # Class of executed instruction
system.cpu3.op_class::FloatMemRead                  5     22.73%    100.00% # Class of executed instruction
system.cpu3.op_class::FloatMemWrite                 0      0.00%    100.00% # Class of executed instruction
system.cpu3.op_class::IprAccess                     0      0.00%    100.00% # Class of executed instruction
system.cpu3.op_class::InstPrefetch                  0      0.00%    100.00% # Class of executed instruction
system.cpu3.op_class::total                        22                       # Class of executed instruction
system.cpu3.workload.numSyscalls                    0                       # Number of system calls
system.l3bus.snoop_filter.hit_multi_requests            0                       # Number of requests hitting in the snoop filter with multiple (>1) holders of the requested data.
system.l3bus.snoop_filter.hit_multi_snoops            0                       # Number of snoops hitting in the snoop filter with multiple (>1) holders of the requested data.
system.l3bus.snoop_filter.hit_single_requests      1254673                       # Number of requests hitting in the snoop filter with a single holder of the requested data.
system.l3bus.snoop_filter.hit_single_snoops            0                       # Number of snoops hitting in the snoop filter with a single holder of the requested data.
system.l3bus.snoop_filter.tot_requests        2524780                       # Total number of requests made to the snoop filter.
system.l3bus.snoop_filter.tot_snoops                0                       # Total number of snoops made to the snoop filter.
system.membus.snoop_filter.hit_multi_requests            0                       # Number of requests hitting in the snoop filter with multiple (>1) holders of the requested data.
system.membus.snoop_filter.hit_multi_snoops            0                       # Number of snoops hitting in the snoop filter with multiple (>1) holders of the requested data.
system.membus.snoop_filter.hit_single_requests       736856                       # Number of requests hitting in the snoop filter with a single holder of the requested data.
system.membus.snoop_filter.hit_single_snoops            0                       # Number of snoops hitting in the snoop filter with a single holder of the requested data.
system.membus.snoop_filter.tot_requests       1552421                       # Total number of requests made to the snoop filter.
system.membus.snoop_filter.tot_snoops               0                       # Total number of snoops made to the snoop filter.
system.switch_cpus0.cc_regfile_reads        185084252                       # number of cc regfile reads
system.switch_cpus0.cc_regfile_writes        90929200                       # number of cc regfile writes
system.switch_cpus0.committedInsts          225751067                       # Number of Instructions Simulated
system.switch_cpus0.committedOps            406892010                       # Number of Ops (including micro ops) Simulated
system.switch_cpus0.cpi                      0.400598                       # CPI: Cycles Per Instruction
system.switch_cpus0.cpi_total                0.400598                       # CPI: Total CPI of All Threads
system.switch_cpus0.fp_regfile_reads        132856235                       # number of floating regfile reads
system.switch_cpus0.fp_regfile_writes        76287424                       # number of floating regfile writes
system.switch_cpus0.idleCycles                  89702                       # Total number of cycles that the CPU has spent unscheduled due to idling
system.switch_cpus0.iew.branchMispredicts       985415                       # Number of branch mispredicts detected at execute
system.switch_cpus0.iew.exec_branches        41865477                       # Number of branches executed
system.switch_cpus0.iew.exec_nop                    0                       # number of nop insts executed
system.switch_cpus0.iew.exec_rate            4.801393                       # Inst execution rate
system.switch_cpus0.iew.exec_refs           127315794                       # number of memory reference insts executed
system.switch_cpus0.iew.exec_stores          38681891                       # Number of stores executed
system.switch_cpus0.iew.exec_swp                    0                       # number of swp insts executed
system.switch_cpus0.iew.iewBlockCycles        5808591                       # Number of cycles IEW is blocking
system.switch_cpus0.iew.iewDispLoadInsts     92967851                       # Number of dispatched load instructions
system.switch_cpus0.iew.iewDispNonSpecInsts            7                       # Number of dispatched non-speculative instructions
system.switch_cpus0.iew.iewDispSquashedInsts          264                       # Number of squashed instructions skipped by dispatch
system.switch_cpus0.iew.iewDispStoreInsts     41115363                       # Number of dispatched store instructions
system.switch_cpus0.iew.iewDispatchedInsts    454566258                       # Number of instructions dispatched to IQ
system.switch_cpus0.iew.iewExecLoadInsts     88633903                       # Number of load instructions executed
system.switch_cpus0.iew.iewExecSquashedInsts      2672569                       # Number of squashed instructions skipped in execute
system.switch_cpus0.iew.iewExecutedInsts    434215903                       # Number of executed instructions
system.switch_cpus0.iew.iewIQFullEvents          9832                       # Number of times the IQ has become full, causing a stall
system.switch_cpus0.iew.iewIdleCycles               0                       # Number of cycles IEW is idle
system.switch_cpus0.iew.iewLSQFullEvents       161226                       # Number of times the LSQ has become full, causing a stall
system.switch_cpus0.iew.iewSquashCycles        894756                       # Number of cycles IEW is squashing
system.switch_cpus0.iew.iewUnblockCycles       174760                       # Number of cycles IEW is unblocking
system.switch_cpus0.iew.memOrderViolationEvents        16807                       # Number of memory order violations
system.switch_cpus0.iew.predictedNotTakenIncorrect       633636                       # Number of branches that were predicted not taken incorrectly
system.switch_cpus0.iew.predictedTakenIncorrect       351779                       # Number of branches that were predicted taken incorrectly
system.switch_cpus0.iew.wb_consumers        567833587                       # num instructions consuming a value
system.switch_cpus0.iew.wb_count            432618672                       # cumulative count of insts written-back
system.switch_cpus0.iew.wb_fanout            0.567261                       # average fanout of values written-back
system.switch_cpus0.iew.wb_producers        322110055                       # num instructions producing a value
system.switch_cpus0.iew.wb_rate              4.783731                       # insts written-back per cycle
system.switch_cpus0.iew.wb_sent             433733442                       # cumulative count of insts sent to commit
system.switch_cpus0.int_regfile_reads       600936455                       # number of integer regfile reads
system.switch_cpus0.int_regfile_writes      270834400                       # number of integer regfile writes
system.switch_cpus0.ipc                      2.496269                       # IPC: Instructions Per Cycle
system.switch_cpus0.ipc_total                2.496269                       # IPC: Total IPC of All Threads
system.switch_cpus0.iq.FU_type_0::No_OpClass      2337421      0.54%      0.54% # Type of FU issued
system.switch_cpus0.iq.FU_type_0::IntAlu    261848799     59.93%     60.47% # Type of FU issued
system.switch_cpus0.iq.FU_type_0::IntMult       897264      0.21%     60.68% # Type of FU issued
system.switch_cpus0.iq.FU_type_0::IntDiv            0      0.00%     60.68% # Type of FU issued
system.switch_cpus0.iq.FU_type_0::FloatAdd      1181211      0.27%     60.95% # Type of FU issued
system.switch_cpus0.iq.FU_type_0::FloatCmp            0      0.00%     60.95% # Type of FU issued
system.switch_cpus0.iq.FU_type_0::FloatCvt            0      0.00%     60.95% # Type of FU issued
system.switch_cpus0.iq.FU_type_0::FloatMult            0      0.00%     60.95% # Type of FU issued
system.switch_cpus0.iq.FU_type_0::FloatMultAcc            0      0.00%     60.95% # Type of FU issued
system.switch_cpus0.iq.FU_type_0::FloatDiv            0      0.00%     60.95% # Type of FU issued
system.switch_cpus0.iq.FU_type_0::FloatMisc            0      0.00%     60.95% # Type of FU issued
system.switch_cpus0.iq.FU_type_0::FloatSqrt            0      0.00%     60.95% # Type of FU issued
system.switch_cpus0.iq.FU_type_0::SimdAdd            0      0.00%     60.95% # Type of FU issued
system.switch_cpus0.iq.FU_type_0::SimdAddAcc            0      0.00%     60.95% # Type of FU issued
system.switch_cpus0.iq.FU_type_0::SimdAlu      2803302      0.64%     61.59% # Type of FU issued
system.switch_cpus0.iq.FU_type_0::SimdCmp            0      0.00%     61.59% # Type of FU issued
system.switch_cpus0.iq.FU_type_0::SimdCvt            0      0.00%     61.59% # Type of FU issued
system.switch_cpus0.iq.FU_type_0::SimdMisc       195549      0.04%     61.63% # Type of FU issued
system.switch_cpus0.iq.FU_type_0::SimdMult            0      0.00%     61.63% # Type of FU issued
system.switch_cpus0.iq.FU_type_0::SimdMultAcc            0      0.00%     61.63% # Type of FU issued
system.switch_cpus0.iq.FU_type_0::SimdShift            0      0.00%     61.63% # Type of FU issued
system.switch_cpus0.iq.FU_type_0::SimdShiftAcc            0      0.00%     61.63% # Type of FU issued
system.switch_cpus0.iq.FU_type_0::SimdDiv            0      0.00%     61.63% # Type of FU issued
system.switch_cpus0.iq.FU_type_0::SimdSqrt            0      0.00%     61.63% # Type of FU issued
system.switch_cpus0.iq.FU_type_0::SimdFloatAdd     15740855      3.60%     65.24% # Type of FU issued
system.switch_cpus0.iq.FU_type_0::SimdFloatAlu            0      0.00%     65.24% # Type of FU issued
system.switch_cpus0.iq.FU_type_0::SimdFloatCmp        53687      0.01%     65.25% # Type of FU issued
system.switch_cpus0.iq.FU_type_0::SimdFloatCvt      6881772      1.58%     66.82% # Type of FU issued
system.switch_cpus0.iq.FU_type_0::SimdFloatDiv       539864      0.12%     66.95% # Type of FU issued
system.switch_cpus0.iq.FU_type_0::SimdFloatMisc            0      0.00%     66.95% # Type of FU issued
system.switch_cpus0.iq.FU_type_0::SimdFloatMult     15647842      3.58%     70.53% # Type of FU issued
system.switch_cpus0.iq.FU_type_0::SimdFloatMultAcc            0      0.00%     70.53% # Type of FU issued
system.switch_cpus0.iq.FU_type_0::SimdFloatSqrt        38902      0.01%     70.54% # Type of FU issued
system.switch_cpus0.iq.FU_type_0::SimdReduceAdd            0      0.00%     70.54% # Type of FU issued
system.switch_cpus0.iq.FU_type_0::SimdReduceAlu            0      0.00%     70.54% # Type of FU issued
system.switch_cpus0.iq.FU_type_0::SimdReduceCmp            0      0.00%     70.54% # Type of FU issued
system.switch_cpus0.iq.FU_type_0::SimdFloatReduceAdd            0      0.00%     70.54% # Type of FU issued
system.switch_cpus0.iq.FU_type_0::SimdFloatReduceCmp            0      0.00%     70.54% # Type of FU issued
system.switch_cpus0.iq.FU_type_0::SimdAes            0      0.00%     70.54% # Type of FU issued
system.switch_cpus0.iq.FU_type_0::SimdAesMix            0      0.00%     70.54% # Type of FU issued
system.switch_cpus0.iq.FU_type_0::SimdSha1Hash            0      0.00%     70.54% # Type of FU issued
system.switch_cpus0.iq.FU_type_0::SimdSha1Hash2            0      0.00%     70.54% # Type of FU issued
system.switch_cpus0.iq.FU_type_0::SimdSha256Hash            0      0.00%     70.54% # Type of FU issued
system.switch_cpus0.iq.FU_type_0::SimdSha256Hash2            0      0.00%     70.54% # Type of FU issued
system.switch_cpus0.iq.FU_type_0::SimdShaSigma2            0      0.00%     70.54% # Type of FU issued
system.switch_cpus0.iq.FU_type_0::SimdShaSigma3            0      0.00%     70.54% # Type of FU issued
system.switch_cpus0.iq.FU_type_0::SimdPredAlu            0      0.00%     70.54% # Type of FU issued
system.switch_cpus0.iq.FU_type_0::MemRead     55569308     12.72%     83.26% # Type of FU issued
system.switch_cpus0.iq.FU_type_0::MemWrite     33019638      7.56%     90.81% # Type of FU issued
system.switch_cpus0.iq.FU_type_0::FloatMemRead     34158143      7.82%     98.63% # Type of FU issued
system.switch_cpus0.iq.FU_type_0::FloatMemWrite      5974922      1.37%    100.00% # Type of FU issued
system.switch_cpus0.iq.FU_type_0::IprAccess            0      0.00%    100.00% # Type of FU issued
system.switch_cpus0.iq.FU_type_0::InstPrefetch            0      0.00%    100.00% # Type of FU issued
system.switch_cpus0.iq.FU_type_0::total     436888479                       # Type of FU issued
system.switch_cpus0.iq.fp_alu_accesses       93640400                       # Number of floating point alu accesses
system.switch_cpus0.iq.fp_inst_queue_reads    182748475                       # Number of floating instruction queue reads
system.switch_cpus0.iq.fp_inst_queue_wakeup_accesses     87800689                       # Number of floating instruction queue wakeup accesses
system.switch_cpus0.iq.fp_inst_queue_writes     98525905                       # Number of floating instruction queue writes
system.switch_cpus0.iq.fu_busy_cnt           12500396                       # FU busy when requested
system.switch_cpus0.iq.fu_busy_rate          0.028612                       # FU busy rate (busy events/executed inst)
system.switch_cpus0.iq.fu_full::No_OpClass            0      0.00%      0.00% # attempts to use FU when none available
system.switch_cpus0.iq.fu_full::IntAlu        3645904     29.17%     29.17% # attempts to use FU when none available
system.switch_cpus0.iq.fu_full::IntMult             0      0.00%     29.17% # attempts to use FU when none available
system.switch_cpus0.iq.fu_full::IntDiv              0      0.00%     29.17% # attempts to use FU when none available
system.switch_cpus0.iq.fu_full::FloatAdd         9401      0.08%     29.24% # attempts to use FU when none available
system.switch_cpus0.iq.fu_full::FloatCmp            0      0.00%     29.24% # attempts to use FU when none available
system.switch_cpus0.iq.fu_full::FloatCvt            0      0.00%     29.24% # attempts to use FU when none available
system.switch_cpus0.iq.fu_full::FloatMult            0      0.00%     29.24% # attempts to use FU when none available
system.switch_cpus0.iq.fu_full::FloatMultAcc            0      0.00%     29.24% # attempts to use FU when none available
system.switch_cpus0.iq.fu_full::FloatDiv            0      0.00%     29.24% # attempts to use FU when none available
system.switch_cpus0.iq.fu_full::FloatMisc            0      0.00%     29.24% # attempts to use FU when none available
system.switch_cpus0.iq.fu_full::FloatSqrt            0      0.00%     29.24% # attempts to use FU when none available
system.switch_cpus0.iq.fu_full::SimdAdd             0      0.00%     29.24% # attempts to use FU when none available
system.switch_cpus0.iq.fu_full::SimdAddAcc            0      0.00%     29.24% # attempts to use FU when none available
system.switch_cpus0.iq.fu_full::SimdAlu        193736      1.55%     30.79% # attempts to use FU when none available
system.switch_cpus0.iq.fu_full::SimdCmp             0      0.00%     30.79% # attempts to use FU when none available
system.switch_cpus0.iq.fu_full::SimdCvt             0      0.00%     30.79% # attempts to use FU when none available
system.switch_cpus0.iq.fu_full::SimdMisc            6      0.00%     30.79% # attempts to use FU when none available
system.switch_cpus0.iq.fu_full::SimdMult            0      0.00%     30.79% # attempts to use FU when none available
system.switch_cpus0.iq.fu_full::SimdMultAcc            0      0.00%     30.79% # attempts to use FU when none available
system.switch_cpus0.iq.fu_full::SimdShift            0      0.00%     30.79% # attempts to use FU when none available
system.switch_cpus0.iq.fu_full::SimdShiftAcc            0      0.00%     30.79% # attempts to use FU when none available
system.switch_cpus0.iq.fu_full::SimdDiv             0      0.00%     30.79% # attempts to use FU when none available
system.switch_cpus0.iq.fu_full::SimdSqrt            0      0.00%     30.79% # attempts to use FU when none available
system.switch_cpus0.iq.fu_full::SimdFloatAdd       452069      3.62%     34.41% # attempts to use FU when none available
system.switch_cpus0.iq.fu_full::SimdFloatAlu            0      0.00%     34.41% # attempts to use FU when none available
system.switch_cpus0.iq.fu_full::SimdFloatCmp            0      0.00%     34.41% # attempts to use FU when none available
system.switch_cpus0.iq.fu_full::SimdFloatCvt        46126      0.37%     34.78% # attempts to use FU when none available
system.switch_cpus0.iq.fu_full::SimdFloatDiv            0      0.00%     34.78% # attempts to use FU when none available
system.switch_cpus0.iq.fu_full::SimdFloatMisc            0      0.00%     34.78% # attempts to use FU when none available
system.switch_cpus0.iq.fu_full::SimdFloatMult       307096      2.46%     37.23% # attempts to use FU when none available
system.switch_cpus0.iq.fu_full::SimdFloatMultAcc            0      0.00%     37.23% # attempts to use FU when none available
system.switch_cpus0.iq.fu_full::SimdFloatSqrt            0      0.00%     37.23% # attempts to use FU when none available
system.switch_cpus0.iq.fu_full::SimdReduceAdd            0      0.00%     37.23% # attempts to use FU when none available
system.switch_cpus0.iq.fu_full::SimdReduceAlu            0      0.00%     37.23% # attempts to use FU when none available
system.switch_cpus0.iq.fu_full::SimdReduceCmp            0      0.00%     37.23% # attempts to use FU when none available
system.switch_cpus0.iq.fu_full::SimdFloatReduceAdd            0      0.00%     37.23% # attempts to use FU when none available
system.switch_cpus0.iq.fu_full::SimdFloatReduceCmp            0      0.00%     37.23% # attempts to use FU when none available
system.switch_cpus0.iq.fu_full::SimdAes             0      0.00%     37.23% # attempts to use FU when none available
system.switch_cpus0.iq.fu_full::SimdAesMix            0      0.00%     37.23% # attempts to use FU when none available
system.switch_cpus0.iq.fu_full::SimdSha1Hash            0      0.00%     37.23% # attempts to use FU when none available
system.switch_cpus0.iq.fu_full::SimdSha1Hash2            0      0.00%     37.23% # attempts to use FU when none available
system.switch_cpus0.iq.fu_full::SimdSha256Hash            0      0.00%     37.23% # attempts to use FU when none available
system.switch_cpus0.iq.fu_full::SimdSha256Hash2            0      0.00%     37.23% # attempts to use FU when none available
system.switch_cpus0.iq.fu_full::SimdShaSigma2            0      0.00%     37.23% # attempts to use FU when none available
system.switch_cpus0.iq.fu_full::SimdShaSigma3            0      0.00%     37.23% # attempts to use FU when none available
system.switch_cpus0.iq.fu_full::SimdPredAlu            0      0.00%     37.23% # attempts to use FU when none available
system.switch_cpus0.iq.fu_full::MemRead       3042895     24.34%     61.58% # attempts to use FU when none available
system.switch_cpus0.iq.fu_full::MemWrite      1032572      8.26%     69.84% # attempts to use FU when none available
system.switch_cpus0.iq.fu_full::FloatMemRead      3265952     26.13%     95.96% # attempts to use FU when none available
system.switch_cpus0.iq.fu_full::FloatMemWrite       504639      4.04%    100.00% # attempts to use FU when none available
system.switch_cpus0.iq.fu_full::IprAccess            0      0.00%    100.00% # attempts to use FU when none available
system.switch_cpus0.iq.fu_full::InstPrefetch            0      0.00%    100.00% # attempts to use FU when none available
system.switch_cpus0.iq.int_alu_accesses     353411054                       # Number of integer alu accesses
system.switch_cpus0.iq.int_inst_queue_reads    794616002                       # Number of integer instruction queue reads
system.switch_cpus0.iq.int_inst_queue_wakeup_accesses    344817983                       # Number of integer instruction queue wakeup accesses
system.switch_cpus0.iq.int_inst_queue_writes    403731078                       # Number of integer instruction queue writes
system.switch_cpus0.iq.iqInstsAdded         454566247                       # Number of instructions added to the IQ (excludes non-spec)
system.switch_cpus0.iq.iqInstsIssued        436888479                       # Number of instructions issued
system.switch_cpus0.iq.iqNonSpecInstsAdded           11                       # Number of non-speculative instructions added to the IQ
system.switch_cpus0.iq.iqSquashedInstsExamined     47674153                       # Number of squashed instructions iterated over during squash; mainly for profiling
system.switch_cpus0.iq.iqSquashedInstsIssued       741426                       # Number of squashed instructions issued
system.switch_cpus0.iq.iqSquashedNonSpecRemoved            7                       # Number of squashed non-spec instructions that were removed
system.switch_cpus0.iq.iqSquashedOperandsExamined     67888576                       # Number of squashed operands that are examined and possibly removed from graph
system.switch_cpus0.iq.issued_per_cycle::samples     90345704                       # Number of insts issued each cycle
system.switch_cpus0.iq.issued_per_cycle::mean     4.835742                       # Number of insts issued each cycle
system.switch_cpus0.iq.issued_per_cycle::stdev     2.692119                       # Number of insts issued each cycle
system.switch_cpus0.iq.issued_per_cycle::underflows            0      0.00%      0.00% # Number of insts issued each cycle
system.switch_cpus0.iq.issued_per_cycle::0     12682050     14.04%     14.04% # Number of insts issued each cycle
system.switch_cpus0.iq.issued_per_cycle::1      2398809      2.66%     16.69% # Number of insts issued each cycle
system.switch_cpus0.iq.issued_per_cycle::2      4653437      5.15%     21.84% # Number of insts issued each cycle
system.switch_cpus0.iq.issued_per_cycle::3      6248222      6.92%     28.76% # Number of insts issued each cycle
system.switch_cpus0.iq.issued_per_cycle::4      8657391      9.58%     38.34% # Number of insts issued each cycle
system.switch_cpus0.iq.issued_per_cycle::5     11138853     12.33%     50.67% # Number of insts issued each cycle
system.switch_cpus0.iq.issued_per_cycle::6     13629479     15.09%     65.76% # Number of insts issued each cycle
system.switch_cpus0.iq.issued_per_cycle::7     13162277     14.57%     80.33% # Number of insts issued each cycle
system.switch_cpus0.iq.issued_per_cycle::8     17775186     19.67%    100.00% # Number of insts issued each cycle
system.switch_cpus0.iq.issued_per_cycle::overflows            0      0.00%    100.00% # Number of insts issued each cycle
system.switch_cpus0.iq.issued_per_cycle::min_value            0                       # Number of insts issued each cycle
system.switch_cpus0.iq.issued_per_cycle::max_value            8                       # Number of insts issued each cycle
system.switch_cpus0.iq.issued_per_cycle::total     90345704                       # Number of insts issued each cycle
system.switch_cpus0.iq.rate                  4.830945                       # Inst issue rate
system.switch_cpus0.iq.vec_alu_accesses             0                       # Number of vector alu accesses
system.switch_cpus0.iq.vec_inst_queue_reads            0                       # Number of vector instruction queue reads
system.switch_cpus0.iq.vec_inst_queue_wakeup_accesses            0                       # Number of vector instruction queue wakeup accesses
system.switch_cpus0.iq.vec_inst_queue_writes            0                       # Number of vector instruction queue writes
system.switch_cpus0.memDep0.conflictingLoads      4938995                       # Number of conflicting loads.
system.switch_cpus0.memDep0.conflictingStores      2276820                       # Number of conflicting stores.
system.switch_cpus0.memDep0.insertedLoads     92967851                       # Number of loads inserted to the mem dependence unit.
system.switch_cpus0.memDep0.insertedStores     41115363                       # Number of stores inserted to the mem dependence unit.
system.switch_cpus0.misc_regfile_reads      213831953                       # number of misc regfile reads
system.switch_cpus0.misc_regfile_writes             9                       # number of misc regfile writes
system.switch_cpus0.numCycles                90435406                       # number of cpu cycles simulated
system.switch_cpus0.numWorkItemsCompleted            0                       # number of work items this cpu completed
system.switch_cpus0.numWorkItemsStarted             0                       # number of work items this cpu started
system.switch_cpus0.timesIdled                    395                       # Number of times that the entire CPU went into an idle state and unscheduled itself
system.switch_cpus1.cc_regfile_reads         45137502                       # number of cc regfile reads
system.switch_cpus1.cc_regfile_writes        54345452                       # number of cc regfile writes
system.switch_cpus1.committedInsts          250000006                       # Number of Instructions Simulated
system.switch_cpus1.committedOps            297151015                       # Number of Ops (including micro ops) Simulated
system.switch_cpus1.cpi                      0.361742                       # CPI: Cycles Per Instruction
system.switch_cpus1.cpi_total                0.361742                       # CPI: Total CPI of All Threads
system.switch_cpus1.fp_regfile_reads        404199885                       # number of floating regfile reads
system.switch_cpus1.fp_regfile_writes       198343025                       # number of floating regfile writes
system.switch_cpus1.idleCycles                  22291                       # Total number of cycles that the CPU has spent unscheduled due to idling
system.switch_cpus1.iew.branchMispredicts       153372                       # Number of branch mispredicts detected at execute
system.switch_cpus1.iew.exec_branches         2765421                       # Number of branches executed
system.switch_cpus1.iew.exec_nop                    0                       # number of nop insts executed
system.switch_cpus1.iew.exec_rate            3.317868                       # Inst execution rate
system.switch_cpus1.iew.exec_refs            98352497                       # number of memory reference insts executed
system.switch_cpus1.iew.exec_stores          23617946                       # Number of stores executed
system.switch_cpus1.iew.exec_swp                    0                       # number of swp insts executed
system.switch_cpus1.iew.iewBlockCycles       14769358                       # Number of cycles IEW is blocking
system.switch_cpus1.iew.iewDispLoadInsts     75346911                       # Number of dispatched load instructions
system.switch_cpus1.iew.iewDispNonSpecInsts            0                       # Number of dispatched non-speculative instructions
system.switch_cpus1.iew.iewDispSquashedInsts        64633                       # Number of squashed instructions skipped by dispatch
system.switch_cpus1.iew.iewDispStoreInsts     23698981                       # Number of dispatched store instructions
system.switch_cpus1.iew.iewDispatchedInsts    303149000                       # Number of instructions dispatched to IQ
system.switch_cpus1.iew.iewExecLoadInsts     74734551                       # Number of load instructions executed
system.switch_cpus1.iew.iewExecSquashedInsts       245876                       # Number of squashed instructions skipped in execute
system.switch_cpus1.iew.iewExecutedInsts    300052741                       # Number of executed instructions
system.switch_cpus1.iew.iewIQFullEvents        204122                       # Number of times the IQ has become full, causing a stall
system.switch_cpus1.iew.iewIdleCycles               0                       # Number of cycles IEW is idle
system.switch_cpus1.iew.iewLSQFullEvents       436138                       # Number of times the LSQ has become full, causing a stall
system.switch_cpus1.iew.iewSquashCycles        153408                       # Number of cycles IEW is squashing
system.switch_cpus1.iew.iewUnblockCycles       703000                       # Number of cycles IEW is unblocking
system.switch_cpus1.iew.memOrderViolationEvents         4086                       # Number of memory order violations
system.switch_cpus1.iew.predictedNotTakenIncorrect        34499                       # Number of branches that were predicted not taken incorrectly
system.switch_cpus1.iew.predictedTakenIncorrect       118873                       # Number of branches that were predicted taken incorrectly
system.switch_cpus1.iew.wb_consumers        455455364                       # num instructions consuming a value
system.switch_cpus1.iew.wb_count            299932670                       # cumulative count of insts written-back
system.switch_cpus1.iew.wb_fanout            0.525707                       # average fanout of values written-back
system.switch_cpus1.iew.wb_producers        239435947                       # num instructions producing a value
system.switch_cpus1.iew.wb_rate              3.316540                       # insts written-back per cycle
system.switch_cpus1.iew.wb_sent             300004089                       # cumulative count of insts sent to commit
system.switch_cpus1.int_regfile_reads       312021274                       # number of integer regfile reads
system.switch_cpus1.int_regfile_writes       73201358                       # number of integer regfile writes
system.switch_cpus1.ipc                      2.764404                       # IPC: Instructions Per Cycle
system.switch_cpus1.ipc_total                2.764404                       # IPC: Total IPC of All Threads
system.switch_cpus1.iq.FU_type_0::No_OpClass        53219      0.02%      0.02% # Type of FU issued
system.switch_cpus1.iq.FU_type_0::IntAlu     86556209     28.82%     28.84% # Type of FU issued
system.switch_cpus1.iq.FU_type_0::IntMult        30135      0.01%     28.85% # Type of FU issued
system.switch_cpus1.iq.FU_type_0::IntDiv            0      0.00%     28.85% # Type of FU issued
system.switch_cpus1.iq.FU_type_0::FloatAdd            0      0.00%     28.85% # Type of FU issued
system.switch_cpus1.iq.FU_type_0::FloatCmp            0      0.00%     28.85% # Type of FU issued
system.switch_cpus1.iq.FU_type_0::FloatCvt            0      0.00%     28.85% # Type of FU issued
system.switch_cpus1.iq.FU_type_0::FloatMult            0      0.00%     28.85% # Type of FU issued
system.switch_cpus1.iq.FU_type_0::FloatMultAcc            0      0.00%     28.85% # Type of FU issued
system.switch_cpus1.iq.FU_type_0::FloatDiv            0      0.00%     28.85% # Type of FU issued
system.switch_cpus1.iq.FU_type_0::FloatMisc            0      0.00%     28.85% # Type of FU issued
system.switch_cpus1.iq.FU_type_0::FloatSqrt            0      0.00%     28.85% # Type of FU issued
system.switch_cpus1.iq.FU_type_0::SimdAdd            0      0.00%     28.85% # Type of FU issued
system.switch_cpus1.iq.FU_type_0::SimdAddAcc            0      0.00%     28.85% # Type of FU issued
system.switch_cpus1.iq.FU_type_0::SimdAlu       187340      0.06%     28.91% # Type of FU issued
system.switch_cpus1.iq.FU_type_0::SimdCmp            0      0.00%     28.91% # Type of FU issued
system.switch_cpus1.iq.FU_type_0::SimdCvt            0      0.00%     28.91% # Type of FU issued
system.switch_cpus1.iq.FU_type_0::SimdMisc          744      0.00%     28.91% # Type of FU issued
system.switch_cpus1.iq.FU_type_0::SimdMult            0      0.00%     28.91% # Type of FU issued
system.switch_cpus1.iq.FU_type_0::SimdMultAcc            0      0.00%     28.91% # Type of FU issued
system.switch_cpus1.iq.FU_type_0::SimdShift            0      0.00%     28.91% # Type of FU issued
system.switch_cpus1.iq.FU_type_0::SimdShiftAcc            0      0.00%     28.91% # Type of FU issued
system.switch_cpus1.iq.FU_type_0::SimdDiv            0      0.00%     28.91% # Type of FU issued
system.switch_cpus1.iq.FU_type_0::SimdSqrt            0      0.00%     28.91% # Type of FU issued
system.switch_cpus1.iq.FU_type_0::SimdFloatAdd     55718371     18.55%     47.47% # Type of FU issued
system.switch_cpus1.iq.FU_type_0::SimdFloatAlu            0      0.00%     47.47% # Type of FU issued
system.switch_cpus1.iq.FU_type_0::SimdFloatCmp            0      0.00%     47.47% # Type of FU issued
system.switch_cpus1.iq.FU_type_0::SimdFloatCvt      3366030      1.12%     48.59% # Type of FU issued
system.switch_cpus1.iq.FU_type_0::SimdFloatDiv            0      0.00%     48.59% # Type of FU issued
system.switch_cpus1.iq.FU_type_0::SimdFloatMisc            0      0.00%     48.59% # Type of FU issued
system.switch_cpus1.iq.FU_type_0::SimdFloatMult     55938923     18.63%     67.22% # Type of FU issued
system.switch_cpus1.iq.FU_type_0::SimdFloatMultAcc            0      0.00%     67.22% # Type of FU issued
system.switch_cpus1.iq.FU_type_0::SimdFloatSqrt            0      0.00%     67.22% # Type of FU issued
system.switch_cpus1.iq.FU_type_0::SimdReduceAdd            0      0.00%     67.22% # Type of FU issued
system.switch_cpus1.iq.FU_type_0::SimdReduceAlu            0      0.00%     67.22% # Type of FU issued
system.switch_cpus1.iq.FU_type_0::SimdReduceCmp            0      0.00%     67.22% # Type of FU issued
system.switch_cpus1.iq.FU_type_0::SimdFloatReduceAdd            0      0.00%     67.22% # Type of FU issued
system.switch_cpus1.iq.FU_type_0::SimdFloatReduceCmp            0      0.00%     67.22% # Type of FU issued
system.switch_cpus1.iq.FU_type_0::SimdAes            0      0.00%     67.22% # Type of FU issued
system.switch_cpus1.iq.FU_type_0::SimdAesMix            0      0.00%     67.22% # Type of FU issued
system.switch_cpus1.iq.FU_type_0::SimdSha1Hash            0      0.00%     67.22% # Type of FU issued
system.switch_cpus1.iq.FU_type_0::SimdSha1Hash2            0      0.00%     67.22% # Type of FU issued
[...]
system.switch_cpus3.commit.numCommittedDist::stdev     2.415592                       # Number of insts commited each cycle
system.switch_cpus3.commit.numCommittedDist::underflows            0      0.00%      0.00% # Number of insts commited each cycle
system.switch_cpus3.commit.numCommittedDist::0     75088615     83.10%     83.10% # Number of insts commited each cycle
system.switch_cpus3.commit.numCommittedDist::1      2112626      2.34%     85.44% # Number of insts commited each cycle
system.switch_cpus3.commit.numCommittedDist::2      1664785      1.84%     87.28% # Number of insts commited each cycle
system.switch_cpus3.commit.numCommittedDist::3      1230372      1.36%     88.64% # Number of insts commited each cycle
system.switch_cpus3.commit.numCommittedDist::4       635399      0.70%     89.35% # Number of insts commited each cycle
system.switch_cpus3.commit.numCommittedDist::5       706259      0.78%     90.13% # Number of insts commited each cycle
system.switch_cpus3.commit.numCommittedDist::6       250793      0.28%     90.41% # Number of insts commited each cycle
system.switch_cpus3.commit.numCommittedDist::7       171092      0.19%     90.60% # Number of insts commited each cycle
system.switch_cpus3.commit.numCommittedDist::8      8496681      9.40%    100.00% # Number of insts commited each cycle
system.switch_cpus3.commit.numCommittedDist::overflows            0      0.00%    100.00% # Number of insts commited each cycle
system.switch_cpus3.commit.numCommittedDist::min_value            0                       # Number of insts commited each cycle
system.switch_cpus3.commit.numCommittedDist::max_value            8                       # Number of insts commited each cycle
system.switch_cpus3.commit.numCommittedDist::total     90356622                       # Number of insts commited each cycle
system.switch_cpus3.commit.instsCommitted     60912623                       # Number of instructions committed
system.switch_cpus3.commit.opsCommitted      85882053                       # Number of ops (including micro ops) committed
system.switch_cpus3.commit.memRefs           22730164                       # Number of memory references committed
system.switch_cpus3.commit.loads             18168064                       # Number of loads committed
system.switch_cpus3.commit.amos                     0                       # Number of atomic instructions committed
system.switch_cpus3.commit.membars                  0                       # Number of memory barriers committed
system.switch_cpus3.commit.branches           3410565                       # Number of branches committed
system.switch_cpus3.commit.vector                   0                       # Number of committed Vector instructions.
system.switch_cpus3.commit.floating          55722023                       # Number of committed floating point instructions.
system.switch_cpus3.commit.integer           51529529                       # Number of committed integer instructions.
system.switch_cpus3.commit.functionCalls          131                       # Number of function calls committed.
system.switch_cpus3.commit.committedInstType_0::No_OpClass         2100      0.00%      0.00% # Class of committed instruction
system.switch_cpus3.commit.committedInstType_0::IntAlu     32627900     37.99%     37.99% # Class of committed instruction
system.switch_cpus3.commit.committedInstType_0::IntMult         3482      0.00%     38.00% # Class of committed instruction
system.switch_cpus3.commit.committedInstType_0::IntDiv            7      0.00%     38.00% # Class of committed instruction
system.switch_cpus3.commit.committedInstType_0::FloatAdd           81      0.00%     38.00% # Class of committed instruction
system.switch_cpus3.commit.committedInstType_0::FloatCmp            0      0.00%     38.00% # Class of committed instruction
system.switch_cpus3.commit.committedInstType_0::FloatCvt            0      0.00%     38.00% # Class of committed instruction
system.switch_cpus3.commit.committedInstType_0::FloatMult            0      0.00%     38.00% # Class of committed instruction
system.switch_cpus3.commit.committedInstType_0::FloatMultAcc            0      0.00%     38.00% # Class of committed instruction
system.switch_cpus3.commit.committedInstType_0::FloatDiv            0      0.00%     38.00% # Class of committed instruction
system.switch_cpus3.commit.committedInstType_0::FloatMisc            0      0.00%     38.00% # Class of committed instruction
system.switch_cpus3.commit.committedInstType_0::FloatSqrt            0      0.00%     38.00% # Class of committed instruction
system.switch_cpus3.commit.committedInstType_0::SimdAdd            0      0.00%     38.00% # Class of committed instruction
system.switch_cpus3.commit.committedInstType_0::SimdAddAcc            0      0.00%     38.00% # Class of committed instruction
system.switch_cpus3.commit.committedInstType_0::SimdAlu       391776      0.46%     38.45% # Class of committed instruction
system.switch_cpus3.commit.committedInstType_0::SimdCmp            0      0.00%     38.45% # Class of committed instruction
system.switch_cpus3.commit.committedInstType_0::SimdCvt            0      0.00%     38.45% # Class of committed instruction
system.switch_cpus3.commit.committedInstType_0::SimdMisc          455      0.00%     38.45% # Class of committed instruction
system.switch_cpus3.commit.committedInstType_0::SimdMult            0      0.00%     38.45% # Class of committed instruction
system.switch_cpus3.commit.committedInstType_0::SimdMultAcc            0      0.00%     38.45% # Class of committed instruction
system.switch_cpus3.commit.committedInstType_0::SimdShift            0      0.00%     38.45% # Class of committed instruction
system.switch_cpus3.commit.committedInstType_0::SimdShiftAcc            0      0.00%     38.45% # Class of committed instruction
system.switch_cpus3.commit.committedInstType_0::SimdDiv            0      0.00%     38.45% # Class of committed instruction
system.switch_cpus3.commit.committedInstType_0::SimdSqrt            0      0.00%     38.45% # Class of committed instruction
system.switch_cpus3.commit.committedInstType_0::SimdFloatAdd     12182430     14.19%     52.64% # Class of committed instruction
system.switch_cpus3.commit.committedInstType_0::SimdFloatAlu            0      0.00%     52.64% # Class of committed instruction
system.switch_cpus3.commit.committedInstType_0::SimdFloatCmp            0      0.00%     52.64% # Class of committed instruction
system.switch_cpus3.commit.committedInstType_0::SimdFloatCvt      1767856      2.06%     54.70% # Class of committed instruction
system.switch_cpus3.commit.committedInstType_0::SimdFloatDiv       388387      0.45%     55.15% # Class of committed instruction
system.switch_cpus3.commit.committedInstType_0::SimdFloatMisc            0      0.00%     55.15% # Class of committed instruction
system.switch_cpus3.commit.committedInstType_0::SimdFloatMult     15296630     17.81%     72.96% # Class of committed instruction
system.switch_cpus3.commit.committedInstType_0::SimdFloatMultAcc            0      0.00%     72.96% # Class of committed instruction
system.switch_cpus3.commit.committedInstType_0::SimdFloatSqrt       490785      0.57%     73.53% # Class of committed instruction
system.switch_cpus3.commit.committedInstType_0::SimdReduceAdd            0      0.00%     73.53% # Class of committed instruction
system.switch_cpus3.commit.committedInstType_0::SimdReduceAlu            0      0.00%     73.53% # Class of committed instruction
system.switch_cpus3.commit.committedInstType_0::SimdReduceCmp            0      0.00%     73.53% # Class of committed instruction
system.switch_cpus3.commit.committedInstType_0::SimdFloatReduceAdd            0      0.00%     73.53% # Class of committed instruction
system.switch_cpus3.commit.committedInstType_0::SimdFloatReduceCmp            0      0.00%     73.53% # Class of committed instruction
system.switch_cpus3.commit.committedInstType_0::SimdAes            0      0.00%     73.53% # Class of committed instruction
system.switch_cpus3.commit.committedInstType_0::SimdAesMix            0      0.00%     73.53% # Class of committed instruction
system.switch_cpus3.commit.committedInstType_0::SimdSha1Hash            0      0.00%     73.53% # Class of committed instruction
system.switch_cpus3.commit.committedInstType_0::SimdSha1Hash2            0      0.00%     73.53% # Class of committed instruction
system.switch_cpus3.commit.committedInstType_0::SimdSha256Hash            0      0.00%     73.53% # Class of committed instruction
system.switch_cpus3.commit.committedInstType_0::SimdSha256Hash2            0      0.00%     73.53% # Class of committed instruction
system.switch_cpus3.commit.committedInstType_0::SimdShaSigma2            0      0.00%     73.53% # Class of committed instruction
system.switch_cpus3.commit.committedInstType_0::SimdShaSigma3            0      0.00%     73.53% # Class of committed instruction
system.switch_cpus3.commit.committedInstType_0::SimdPredAlu            0      0.00%     73.53% # Class of committed instruction
system.switch_cpus3.commit.committedInstType_0::MemRead      1325592      1.54%     75.08% # Class of committed instruction
system.switch_cpus3.commit.committedInstType_0::MemWrite        32186      0.04%     75.11% # Class of committed instruction
system.switch_cpus3.commit.committedInstType_0::FloatMemRead     16842472     19.61%     94.73% # Class of committed instruction
system.switch_cpus3.commit.committedInstType_0::FloatMemWrite      4529914      5.27%    100.00% # Class of committed instruction
system.switch_cpus3.commit.committedInstType_0::IprAccess            0      0.00%    100.00% # Class of committed instruction
system.switch_cpus3.commit.committedInstType_0::InstPrefetch            0      0.00%    100.00% # Class of committed instruction
system.switch_cpus3.commit.committedInstType_0::total     85882053                       # Class of committed instruction
system.switch_cpus3.commit.commitEligibleSamples      8496681                       # number cycles where commit BW limit reached
system.switch_cpus3.decode.idleCycles         1096127                       # Number of cycles decode is idle
system.switch_cpus3.decode.blockedCycles     77748703                       # Number of cycles decode is blocked
system.switch_cpus3.decode.runCycles          9140311                       # Number of cycles decode is running
system.switch_cpus3.decode.unblockCycles      2387616                       # Number of cycles decode is unblocking
system.switch_cpus3.decode.squashCycles          7509                       # Number of cycles decode is squashing
system.switch_cpus3.decode.branchResolved      1648107                       # Number of times decode resolved a  branch
system.switch_cpus3.decode.branchMispred          104                       # Number of times decode detected a branch misprediction
system.switch_cpus3.decode.decodedInsts      86159734                       # Number of instructions handled by decode
system.switch_cpus3.decode.squashedInsts          501                       # Number of squashed instructions handled by decode
system.switch_cpus3.dtb.rdAccesses           18199286                       # TLB accesses on read requests
system.switch_cpus3.dtb.wrAccesses            4563053                       # TLB accesses on write requests
system.switch_cpus3.dtb.rdMisses                38842                       # TLB misses on read requests
system.switch_cpus3.dtb.wrMisses                 9276                       # TLB misses on write requests
system.switch_cpus3.dtb.walker.power_state.pwrStateResidencyTicks::UNDEFINED 13975273484253                       # Cumulative time (in ticks) in various power states
system.switch_cpus3.fetch.icacheStallCycles        41903                       # Number of cycles fetch is stalled on an Icache miss
system.switch_cpus3.fetch.insts              61259237                       # Number of instructions fetch has processed
system.switch_cpus3.fetch.branches            3434888                       # Number of branches that fetch encountered
system.switch_cpus3.fetch.predictedBranches      1656666                       # Number of branches that fetch has predicted taken
system.switch_cpus3.fetch.cycles             90330782                       # Number of cycles fetch has run and was not squashing or blocked
system.switch_cpus3.fetch.squashCycles          15224                       # Number of cycles fetch has spent squashing
system.switch_cpus3.fetch.cacheLines          5339484                       # Number of cache lines fetched
system.switch_cpus3.fetch.icacheSquashes          199                       # Number of outstanding Icache misses that were squashed
system.switch_cpus3.fetch.nisnDist::samples     90380297                       # Number of instructions fetched each cycle (Total)
system.switch_cpus3.fetch.nisnDist::mean     0.955421                       # Number of instructions fetched each cycle (Total)
system.switch_cpus3.fetch.nisnDist::stdev     2.438202                       # Number of instructions fetched each cycle (Total)
system.switch_cpus3.fetch.nisnDist::underflows            0      0.00%      0.00% # Number of instructions fetched each cycle (Total)
system.switch_cpus3.fetch.nisnDist::0        76369959     84.50%     84.50% # Number of instructions fetched each cycle (Total)
system.switch_cpus3.fetch.nisnDist::1         1294461      1.43%     85.93% # Number of instructions fetched each cycle (Total)
system.switch_cpus3.fetch.nisnDist::2          610440      0.68%     86.61% # Number of instructions fetched each cycle (Total)
system.switch_cpus3.fetch.nisnDist::3         1062628      1.18%     87.78% # Number of instructions fetched each cycle (Total)
system.switch_cpus3.fetch.nisnDist::4          909750      1.01%     88.79% # Number of instructions fetched each cycle (Total)
system.switch_cpus3.fetch.nisnDist::5          538577      0.60%     89.38% # Number of instructions fetched each cycle (Total)
system.switch_cpus3.fetch.nisnDist::6          513259      0.57%     89.95% # Number of instructions fetched each cycle (Total)
system.switch_cpus3.fetch.nisnDist::7         1413246      1.56%     91.52% # Number of instructions fetched each cycle (Total)
system.switch_cpus3.fetch.nisnDist::8         7667977      8.48%    100.00% # Number of instructions fetched each cycle (Total)
system.switch_cpus3.fetch.nisnDist::overflows            0      0.00%    100.00% # Number of instructions fetched each cycle (Total)
system.switch_cpus3.fetch.nisnDist::min_value            0                       # Number of instructions fetched each cycle (Total)
system.switch_cpus3.fetch.nisnDist::max_value            8                       # Number of instructions fetched each cycle (Total)
system.switch_cpus3.fetch.nisnDist::total     90380297                       # Number of instructions fetched each cycle (Total)
system.switch_cpus3.fetch.branchRate         0.037982                       # Number of branch fetches per cycle
system.switch_cpus3.fetch.rate               0.677381                       # Number of inst fetches per cycle
system.switch_cpus3.itb.rdAccesses                  0                       # TLB accesses on read requests
system.switch_cpus3.itb.wrAccesses            5339484                       # TLB accesses on write requests
system.switch_cpus3.itb.rdMisses                    0                       # TLB misses on read requests
system.switch_cpus3.itb.wrMisses                   22                       # TLB misses on write requests
system.switch_cpus3.itb.walker.power_state.pwrStateResidencyTicks::UNDEFINED 13975273484253                       # Cumulative time (in ticks) in various power states
system.switch_cpus3.lsq0.forwLoads            1387953                       # Number of loads that had data forwarded from stores
system.switch_cpus3.lsq0.squashedLoads          44234                       # Number of loads squashed
system.switch_cpus3.lsq0.ignoredResponses           22                       # Number of memory responses ignored because the instruction is squashed
system.switch_cpus3.lsq0.memOrderViolation          566                       # Number of memory ordering violations
system.switch_cpus3.lsq0.squashedStores          7211                       # Number of stores squashed
system.switch_cpus3.lsq0.rescheduledLoads            8                       # Number of loads that were rescheduled
system.switch_cpus3.lsq0.blockedByCache            27                       # Number of times an access to memory failed due to the cache being blocked
system.switch_cpus3.power_state.pwrStateResidencyTicks::OFF  30115000521                       # Cumulative time (in ticks) in various power states
system.switch_cpus3.rename.squashCycles          7509                       # Number of cycles rename is squashing
system.switch_cpus3.rename.idleCycles         2150879                       # Number of cycles rename is idle
system.switch_cpus3.rename.blockCycles       36595903                       # Number of cycles rename is blocking
system.switch_cpus3.rename.serializeStallCycles            0                       # count of cycles rename stalledfor serializing inst
system.switch_cpus3.rename.runCycles         10406208                       # Number of cycles rename is running
system.switch_cpus3.rename.unblockCycles     41219767                       # Number of cycles rename is unblocking
system.switch_cpus3.rename.renamedInsts      86107234                       # Number of instructions processed by rename
system.switch_cpus3.rename.ROBFullEvents       207984                       # Number of times rename has blocked due to ROB full
system.switch_cpus3.rename.IQFullEvents       4172100                       # Number of times rename has blocked due to IQ full
system.switch_cpus3.rename.LQFullEvents       2174636                       # Number of times rename has blocked due to LQ full
system.switch_cpus3.rename.SQFullEvents      34944450                       # Number of times rename has blocked due to SQ full
system.switch_cpus3.rename.renamedOperands    101359040                       # Number of destination operands rename has renamed
system.switch_cpus3.rename.lookups          232294063                       # Number of register rename lookups that rename has made
system.switch_cpus3.rename.intLookups        73528177                       # Number of integer rename lookups
system.switch_cpus3.rename.fpLookups        101308839                       # Number of floating rename lookups
system.switch_cpus3.rename.committedMaps    101059655                       # Number of HB maps that are committed
system.switch_cpus3.rename.undoneMaps          299385                       # Number of HB maps that are undone due to squashing
system.switch_cpus3.rename.serializing              0                       # count of serializing insts renamed
system.switch_cpus3.rename.tempSerializing            0                       # count of temporary serializing insts renamed
system.switch_cpus3.rename.skidInsts         13691621                       # count of insts added to the skid buffer
system.switch_cpus3.rob.reads               167904693                       # The number of ROB reads
system.switch_cpus3.rob.writes              172113216                       # The number of ROB writes
system.switch_cpus3.thread0.numInsts         60912623                       # Number of Instructions committed
system.switch_cpus3.thread0.numOps           85882053                       # Number of Ops committed
system.switch_cpus3.thread0.numMemRefs              0                       # Number of Memory References
system.voltage_domain.voltage                       1                       # Voltage in Volts

---------- End Simulation Statistics   ----------
