Command line:
./runscript_pride.sh mcf RFM2.BR1.4C 4 2017 --rh_defense --rh_mitigation=RFM --rh_rfm_per_trefi=2 --rh_rfm_blast_radius=1 --rh_rfm_maxacts_per_trefi=79
Global frequency set at 1000000000000 ticks per second
RFM details - rfm_act_threshold: 39, blast_radius: 1, delay_per_rfm: 175000 ps. sample_rate: 0.025000
RH Defense config: RFM, Bus Delay: 0, rfms_per_trefi: 2, rfm_act_threshold: 39, blast_radius: 1,rfm_delay_per_act: 45000 ps.
DRAM config: RowsPerBank: 65536, BanksPerRank: 32, RanksPerChannel: 1
warn: Sockets disabled, not accepting gdb connections
warn: CoherentXBar system.cpu0.mmucache.mmubus has no snooping ports attached!
warn: CoherentXBar system.cpu1.mmucache.mmubus has no snooping ports attached!
warn: CoherentXBar system.cpu2.mmucache.mmubus has no snooping ports attached!
warn: CoherentXBar system.cpu3.mmucache.mmubus has no snooping ports attached!
warn: Checkpoints for file descriptors currently do not work.
warn: Checkpoints for file descriptors currently do not work.
warn: Checkpoints for file descriptors currently do not work.
warn: Checkpoints for file descriptors currently do not work.
gem5 Simulator System.  http://gem5.org
gem5 is copyrighted software; use the --copyright option for details.

gem5 version 20.1.0.5
gem5 compiled Jul 12 2024 12:42:38
gem5 started Jul 31 2024 15:37:59
gem5 executing on a07dda8b130c, pid 239016
command line: /home/user/PrIDE/performance/gem5/build/X86/gem5.opt --outdir=/home/user/PrIDE/performance/gem5/stats/pride_multiprogram_16GBmem_250Mn.SPEC2017.C4/RFM2.BR1.4C/mcf /home/user/PrIDE/performance/gem5/configs/example/se_rq_spec_config_multicore.py --redirects /lib64=/home/utils/gcc-6.2.0/lib64 --benchmark=mcf --benchmark_stdout=/home/user/PrIDE/performance/gem5/stats/pride_multiprogram_16GBmem_250Mn.SPEC2017.C4/RFM2.BR1.4C/mcf/mcf.out --benchmark_stderr=/home/user/PrIDE/performance/gem5/stats/pride_multiprogram_16GBmem_250Mn.SPEC2017.C4/RFM2.BR1.4C/mcf/mcf.err --spec-version=2017 --rh_defense --rh_mitigation=RFM --rh_rfm_per_trefi=2 --rh_rfm_blast_radius=1 --rh_rfm_maxacts_per_trefi=79 --num-cpus=4 --mem-size=16GB --mem-type=DDR5_2400_32x4 --mem-ranks=1 --mem-channels=1 --checkpoint-dir=/home/user/PrIDE/performance/gem5/cpts-DDR5/multiprogram_16GBmem_25Bn.SPEC2017.C4/mcf-1-ref-x86 --checkpoint-restore=25000000000 --at-instruction --cpu-type DerivO3CPU --caches --l2cache --l1d_size=32kB --l1i_size=32kB --l2_size=256kB --l3_size=4MB --l1d_assoc=8 --l1i_assoc=8 --l2_assoc=16 --l3_assoc=16 --cpu-clock=3GHz --sys-clock=3GHz --maxinsts=250000000 --prog-interval=300Hz

info: Standard input is not a terminal, disabling listeners.
Benchmark- 0   mcf
Selected benchmark
--> mcf
CMD: ['/opt/spec2017/benchspec/CPU/505.mcf_r/run/run_base_refrate_gem5_se-m64.0000/mcf_r_base.gem5_se-m64', '/opt/spec2017/benchspec/CPU/505.mcf_r/run/run_base_refrate_gem5_se-m64.0000/inp.in']
CWD: /opt/spec2017/benchspec/CPU/505.mcf_r/run/run_base_refrate_gem5_se-m64.0000/
Process stdout file: /home/user/PrIDE/performance/gem5/stats/pride_multiprogram_16GBmem_250Mn.SPEC2017.C4/RFM2.BR1.4C/mcf/mcf.out_0
Process stderr file: /home/user/PrIDE/performance/gem5/stats/pride_multiprogram_16GBmem_250Mn.SPEC2017.C4/RFM2.BR1.4C/mcf/mcf.err_0
Benchmark- 1   mcf
Selected benchmark
--> mcf
CMD: ['/opt/spec2017/benchspec/CPU/505.mcf_r/run/run_base_refrate_gem5_se-m64.0000/mcf_r_base.gem5_se-m64', '/opt/spec2017/benchspec/CPU/505.mcf_r/run/run_base_refrate_gem5_se-m64.0000/inp.in']
CWD: /opt/spec2017/benchspec/CPU/505.mcf_r/run/run_base_refrate_gem5_se-m64.0000/
Process stdout file: /home/user/PrIDE/performance/gem5/stats/pride_multiprogram_16GBmem_250Mn.SPEC2017.C4/RFM2.BR1.4C/mcf/mcf.out_1
Process stderr file: /home/user/PrIDE/performance/gem5/stats/pride_multiprogram_16GBmem_250Mn.SPEC2017.C4/RFM2.BR1.4C/mcf/mcf.err_1
Benchmark- 2   mcf
Selected benchmark
--> mcf
CMD: ['/opt/spec2017/benchspec/CPU/505.mcf_r/run/run_base_refrate_gem5_se-m64.0000/mcf_r_base.gem5_se-m64', '/opt/spec2017/benchspec/CPU/505.mcf_r/run/run_base_refrate_gem5_se-m64.0000/inp.in']
CWD: /opt/spec2017/benchspec/CPU/505.mcf_r/run/run_base_refrate_gem5_se-m64.0000/
Process stdout file: /home/user/PrIDE/performance/gem5/stats/pride_multiprogram_16GBmem_250Mn.SPEC2017.C4/RFM2.BR1.4C/mcf/mcf.out_2
Process stderr file: /home/user/PrIDE/performance/gem5/stats/pride_multiprogram_16GBmem_250Mn.SPEC2017.C4/RFM2.BR1.4C/mcf/mcf.err_2
Benchmark- 3   mcf
Selected benchmark
--> mcf
CMD: ['/opt/spec2017/benchspec/CPU/505.mcf_r/run/run_base_refrate_gem5_se-m64.0000/mcf_r_base.gem5_se-m64', '/opt/spec2017/benchspec/CPU/505.mcf_r/run/run_base_refrate_gem5_se-m64.0000/inp.in']
CWD: /opt/spec2017/benchspec/CPU/505.mcf_r/run/run_base_refrate_gem5_se-m64.0000/
Process stdout file: /home/user/PrIDE/performance/gem5/stats/pride_multiprogram_16GBmem_250Mn.SPEC2017.C4/RFM2.BR1.4C/mcf/mcf.out_3
Process stderr file: /home/user/PrIDE/performance/gem5/stats/pride_multiprogram_16GBmem_250Mn.SPEC2017.C4/RFM2.BR1.4C/mcf/mcf.err_3
Workload-0: 
['/opt/spec2017/benchspec/CPU/505.mcf_r/run/run_base_refrate_gem5_se-m64.0000/mcf_r_base.gem5_se-m64', '/opt/spec2017/benchspec/CPU/505.mcf_r/run/run_base_refrate_gem5_se-m64.0000/inp.in']
Workload-1: 
['/opt/spec2017/benchspec/CPU/505.mcf_r/run/run_base_refrate_gem5_se-m64.0000/mcf_r_base.gem5_se-m64', '/opt/spec2017/benchspec/CPU/505.mcf_r/run/run_base_refrate_gem5_se-m64.0000/inp.in']
Workload-2: 
['/opt/spec2017/benchspec/CPU/505.mcf_r/run/run_base_refrate_gem5_se-m64.0000/mcf_r_base.gem5_se-m64', '/opt/spec2017/benchspec/CPU/505.mcf_r/run/run_base_refrate_gem5_se-m64.0000/inp.in']
Workload-3: 
['/opt/spec2017/benchspec/CPU/505.mcf_r/run/run_base_refrate_gem5_se-m64.0000/mcf_r_base.gem5_se-m64', '/opt/spec2017/benchspec/CPU/505.mcf_r/run/run_base_refrate_gem5_se-m64.0000/inp.in']
defense_enable:  True  detector:  MG  mitigation:  RFM  threshold:  800
mg_entries:  1700
rfm_maxacts_per_trefi:  79 rfm_per_trefi:  2 rfm_blast_radius:  1
Switch at curTick count:10000
warn: membus.master is deprecated. `master` is now called `mem_side_ports`
warn: No dot file generated. Please install pydot to generate the dot file and pdf.
info: Entering event queue @ 16815150905778.  Starting simulation...
warn: PowerState: Already in the requested power state, request ignored
Switched CPUS @ tick 16815150915778
switching cpus
**** REAL SIMULATION ****
info: Entering event queue @ 16815150915778.  Starting simulation...
16818484239111: Event_285: system.switch_cpus3 progress event, total committed:9369150, progress insts committed: 9369150, IPC: 0.935978
16818484239111: Event_284: system.switch_cpus2 progress event, total committed:9411810, progress insts committed: 9411810, IPC: 00.94024
16818484239111: Event_283: system.switch_cpus1 progress event, total committed:9375052, progress insts committed: 9375052, IPC: 0.936568
16818484239111: Event_282: system.switch_cpus0 progress event, total committed:9400760, progress insts committed: 9400760, IPC: 0.939136
16821817572444: Event_282: system.switch_cpus0 progress event, total committed:19388393, progress insts committed: 9987633, IPC: 0.997765
16821817572444: Event_283: system.switch_cpus1 progress event, total committed:19335190, progress insts committed: 9960138, IPC: 0.995018
16821817572444: Event_284: system.switch_cpus2 progress event, total committed:19426443, progress insts committed: 10014633, IPC: 01.00046
16821817572444: Event_285: system.switch_cpus3 progress event, total committed:19322269, progress insts committed: 9953119, IPC: 0.994317
16825150905777: Event_285: system.switch_cpus3 progress event, total committed:29395188, progress insts committed: 10072919, IPC: 01.00628
16825150905777: Event_284: system.switch_cpus2 progress event, total committed:29573430, progress insts committed: 10146987, IPC: 01.01368
16825150905777: Event_283: system.switch_cpus1 progress event, total committed:29418771, progress insts committed: 10083581, IPC: 01.00735
16825150905777: Event_282: system.switch_cpus0 progress event, total committed:29518221, progress insts committed: 10129828, IPC: 01.01197
16828484239110: Event_282: system.switch_cpus0 progress event, total committed:39886341, progress insts committed: 10368120, IPC: 01.03578
16828484239110: Event_283: system.switch_cpus1 progress event, total committed:39718958, progress insts committed: 10300187, IPC: 01.02899
16828484239110: Event_284: system.switch_cpus2 progress event, total committed:40021746, progress insts committed: 10448316, IPC: 01.04379
16828484239110: Event_285: system.switch_cpus3 progress event, total committed:39712810, progress insts committed: 10317622, IPC: 01.03073
16831817572443: Event_285: system.switch_cpus3 progress event, total committed:50002074, progress insts committed: 10289264, IPC: 001.0279
16831817572443: Event_284: system.switch_cpus2 progress event, total committed:50586701, progress insts committed: 10564955, IPC: 01.05544
16831817572443: Event_283: system.switch_cpus1 progress event, total committed:50004249, progress insts committed: 10285291, IPC: 001.0275
16831817572443: Event_282: system.switch_cpus0 progress event, total committed:50177543, progress insts committed: 10291202, IPC: 01.02809
16835150905776: Event_282: system.switch_cpus0 progress event, total committed:60751663, progress insts committed: 10574120, IPC: 01.05635
16835150905776: Event_283: system.switch_cpus1 progress event, total committed:60500423, progress insts committed: 10496174, IPC: 01.04857
16835150905776: Event_284: system.switch_cpus2 progress event, total committed:61437778, progress insts committed: 10851077, IPC: 01.08402
16835150905776: Event_285: system.switch_cpus3 progress event, total committed:60518668, progress insts committed: 10516594, IPC: 01.05061
16838484239109: Event_285: system.switch_cpus3 progress event, total committed:71087082, progress insts committed: 10568414, IPC: 01.05578
16838484239109: Event_284: system.switch_cpus2 progress event, total committed:72343175, progress insts committed: 10905397, IPC: 01.08945
16838484239109: Event_283: system.switch_cpus1 progress event, total committed:71047390, progress insts committed: 10546967, IPC: 01.05364
16838484239109: Event_282: system.switch_cpus0 progress event, total committed:71604674, progress insts committed: 10853011, IPC: 01.08422
16841817572442: Event_282: system.switch_cpus0 progress event, total committed:82479021, progress insts committed: 10874347, IPC: 01.08635
16841817572442: Event_283: system.switch_cpus1 progress event, total committed:81721505, progress insts committed: 10674115, IPC: 01.06634
16841817572442: Event_284: system.switch_cpus2 progress event, total committed:83199578, progress insts committed: 10856403, IPC: 01.08455
16841817572442: Event_285: system.switch_cpus3 progress event, total committed:81801787, progress insts committed: 10714705, IPC: 001.0704
16845150905775: Event_285: system.switch_cpus3 progress event, total committed:92140950, progress insts committed: 10339163, IPC: 01.03288
16845150905775: Event_284: system.switch_cpus2 progress event, total committed:93766135, progress insts committed: 10566557, IPC: 001.0556
16845150905775: Event_283: system.switch_cpus1 progress event, total committed:92117674, progress insts committed: 10396169, IPC: 01.03858
16845150905775: Event_282: system.switch_cpus0 progress event, total committed:93480203, progress insts committed: 11001182, IPC: 01.09902
16848484239108: Event_282: system.switch_cpus0 progress event, total committed:104041356, progress insts committed: 10561153, IPC: 01.05506
16848484239108: Event_283: system.switch_cpus1 progress event, total committed:102468591, progress insts committed: 10350917, IPC: 01.03406
16848484239108: Event_284: system.switch_cpus2 progress event, total committed:104143664, progress insts committed: 10377529, IPC: 01.03672
16848484239108: Event_285: system.switch_cpus3 progress event, total committed:102531933, progress insts committed: 10390983, IPC: 01.03806
16851817572441: Event_285: system.switch_cpus3 progress event, total committed:113680039, progress insts committed: 11148106, IPC: 001.1137
16851817572441: Event_284: system.switch_cpus2 progress event, total committed:114448504, progress insts committed: 10304840, IPC: 01.02945
16851817572441: Event_283: system.switch_cpus1 progress event, total committed:112699414, progress insts committed: 10230823, IPC: 01.02206
16851817572441: Event_282: system.switch_cpus0 progress event, total committed:114433617, progress insts committed: 10392261, IPC: 01.03819
16855150905774: Event_282: system.switch_cpus0 progress event, total committed:124713229, progress insts committed: 10279612, IPC: 01.02693
16855150905774: Event_283: system.switch_cpus1 progress event, total committed:123097217, progress insts committed: 10397803, IPC: 01.03874
16855150905774: Event_284: system.switch_cpus2 progress event, total committed:124735589, progress insts committed: 10287085, IPC: 01.02768
16855150905774: Event_285: system.switch_cpus3 progress event, total committed:124672542, progress insts committed: 10992503, IPC: 01.09815
16858484239107: Event_285: system.switch_cpus3 progress event, total committed:130026402, progress insts committed: 5353860, IPC: 0.534851
16858484239107: Event_284: system.switch_cpus2 progress event, total committed:130039280, progress insts committed: 5303691, IPC: 0.529839
16858484239107: Event_283: system.switch_cpus1 progress event, total committed:129959205, progress insts committed: 6861988, IPC: 0.685513
16858484239107: Event_282: system.switch_cpus0 progress event, total committed:130032488, progress insts committed: 5319259, IPC: 0.531394
16861817572440: Event_282: system.switch_cpus0 progress event, total committed:134206314, progress insts committed: 4173826, IPC: 0.416965
16861817572440: Event_283: system.switch_cpus1 progress event, total committed:132297701, progress insts committed: 2338496, IPC: 0.233616
16861817572440: Event_284: system.switch_cpus2 progress event, total committed:134247401, progress insts committed: 4208121, IPC: 0.420391
16861817572440: Event_285: system.switch_cpus3 progress event, total committed:134191683, progress insts committed: 4165281, IPC: 0.416112
16865150905773: Event_285: system.switch_cpus3 progress event, total committed:144957114, progress insts committed: 10765431, IPC: 01.07547
16865150905773: Event_284: system.switch_cpus2 progress event, total committed:145317965, progress insts committed: 11070564, IPC: 01.10595
16865150905773: Event_283: system.switch_cpus1 progress event, total committed:143852036, progress insts committed: 11554335, IPC: 01.15428
16865150905773: Event_282: system.switch_cpus0 progress event, total committed:144976539, progress insts committed: 10770225, IPC: 01.07595
16868484239106: Event_282: system.switch_cpus0 progress event, total committed:156104488, progress insts committed: 11127949, IPC: 01.11168
16868484239106: Event_283: system.switch_cpus1 progress event, total committed:155388388, progress insts committed: 11536352, IPC: 01.15248
16868484239106: Event_284: system.switch_cpus2 progress event, total committed:156154957, progress insts committed: 10836992, IPC: 01.08262
16868484239106: Event_285: system.switch_cpus3 progress event, total committed:156105716, progress insts committed: 11148602, IPC: 01.11375
16871817572439: Event_285: system.switch_cpus3 progress event, total committed:167460458, progress insts committed: 11354742, IPC: 01.13434
16871817572439: Event_284: system.switch_cpus2 progress event, total committed:167956855, progress insts committed: 11801898, IPC: 01.17901
16871817572439: Event_283: system.switch_cpus1 progress event, total committed:166828855, progress insts committed: 11440467, IPC: 001.1429
16871817572439: Event_282: system.switch_cpus0 progress event, total committed:167427034, progress insts committed: 11322546, IPC: 01.13112
16875150905772: Event_282: system.switch_cpus0 progress event, total committed:178217209, progress insts committed: 10790175, IPC: 01.07794
16875150905772: Event_283: system.switch_cpus1 progress event, total committed:178022339, progress insts committed: 11193484, IPC: 01.11823
16875150905772: Event_284: system.switch_cpus2 progress event, total committed:179887635, progress insts committed: 11930780, IPC: 01.19188
16875150905772: Event_285: system.switch_cpus3 progress event, total committed:178253292, progress insts committed: 10792834, IPC: 001.0782
16878484239105: Event_285: system.switch_cpus3 progress event, total committed:189849494, progress insts committed: 11596202, IPC: 01.15846
16878484239105: Event_284: system.switch_cpus2 progress event, total committed:191322847, progress insts committed: 11435212, IPC: 01.14238
16878484239105: Event_283: system.switch_cpus1 progress event, total committed:189691376, progress insts committed: 11669037, IPC: 01.16574
16878484239105: Event_282: system.switch_cpus0 progress event, total committed:189832630, progress insts committed: 11615421, IPC: 01.16038
16881817572438: Event_282: system.switch_cpus0 progress event, total committed:200790171, progress insts committed: 10957541, IPC: 01.09466
16881817572438: Event_283: system.switch_cpus1 progress event, total committed:200283630, progress insts committed: 10592254, IPC: 01.05817
16881817572438: Event_284: system.switch_cpus2 progress event, total committed:202184144, progress insts committed: 10861297, IPC: 01.08504
16881817572438: Event_285: system.switch_cpus3 progress event, total committed:201173138, progress insts committed: 11323644, IPC: 01.13123
16885150905771: Event_285: system.switch_cpus3 progress event, total committed:212882628, progress insts committed: 11709490, IPC: 01.16978
16885150905771: Event_284: system.switch_cpus2 progress event, total committed:213724913, progress insts committed: 11540769, IPC: 01.15292
16885150905771: Event_283: system.switch_cpus1 progress event, total committed:211732209, progress insts committed: 11448579, IPC: 01.14371
16885150905771: Event_282: system.switch_cpus0 progress event, total committed:211809556, progress insts committed: 11019385, IPC: 01.10084
16888484239104: Event_282: system.switch_cpus0 progress event, total committed:223651227, progress insts committed: 11841671, IPC: 01.18298
16888484239104: Event_283: system.switch_cpus1 progress event, total committed:223227021, progress insts committed: 11494812, IPC: 01.14833
16888484239104: Event_284: system.switch_cpus2 progress event, total committed:225054149, progress insts committed: 11329236, IPC: 01.13179
16888484239104: Event_285: system.switch_cpus3 progress event, total committed:224394753, progress insts committed: 11512125, IPC: 01.15006
16891817572437: Event_285: system.switch_cpus3 progress event, total committed:235575834, progress insts committed: 11181081, IPC: 01.11699
16891817572437: Event_284: system.switch_cpus2 progress event, total committed:235983772, progress insts committed: 10929623, IPC: 01.09187
16891817572437: Event_283: system.switch_cpus1 progress event, total committed:234232413, progress insts committed: 11005392, IPC: 01.09944
16891817572437: Event_282: system.switch_cpus0 progress event, total committed:235494053, progress insts committed: 11842826, IPC: 001.1831
16895150905770: Event_282: system.switch_cpus0 progress event, total committed:247184845, progress insts committed: 11690792, IPC: 01.16791
16895150905770: Event_283: system.switch_cpus1 progress event, total committed:245542446, progress insts committed: 11310033, IPC: 01.12987
16895150905770: Event_284: system.switch_cpus2 progress event, total committed:247434641, progress insts committed: 11450869, IPC: 01.14394
16895150905770: Event_285: system.switch_cpus3 progress event, total committed:247345397, progress insts committed: 11769563, IPC: 01.17578
16898484239103: Event_285: system.switch_cpus3 progress event, total committed:258576401, progress insts committed: 11231004, IPC: 01.12198
16898484239103: Event_284: system.switch_cpus2 progress event, total committed:259294729, progress insts committed: 11860088, IPC: 01.18482
16898484239103: Event_283: system.switch_cpus1 progress event, total committed:257434327, progress insts committed: 11891881, IPC: 0001.188
16898484239103: Event_282: system.switch_cpus0 progress event, total committed:258470087, progress insts committed: 11285242, IPC: 001.1274
16901817572436: Event_282: system.switch_cpus0 progress event, total committed:269409232, progress insts committed: 10939145, IPC: 01.09282
16901817572436: Event_283: system.switch_cpus1 progress event, total committed:269321558, progress insts committed: 11887231, IPC: 01.18753
16901817572436: Event_284: system.switch_cpus2 progress event, total committed:270933421, progress insts committed: 11638692, IPC: 01.16271
16901817572436: Event_285: system.switch_cpus3 progress event, total committed:269526704, progress insts committed: 10950303, IPC: 01.09394
16905150905769: Event_285: system.switch_cpus3 progress event, total committed:281232073, progress insts committed: 11705369, IPC: 01.16937
16905150905769: Event_284: system.switch_cpus2 progress event, total committed:282410005, progress insts committed: 11476584, IPC: 01.14651
16905150905769: Event_283: system.switch_cpus1 progress event, total committed:280793969, progress insts committed: 11472411, IPC: 01.14609
16905150905769: Event_282: system.switch_cpus0 progress event, total committed:281192460, progress insts committed: 11783228, IPC: 01.17714
16908484239102: Event_282: system.switch_cpus0 progress event, total committed:292694573, progress insts committed: 11502113, IPC: 01.14906
16908484239102: Event_283: system.switch_cpus1 progress event, total committed:291885988, progress insts committed: 11092019, IPC: 01.10809
16908484239102: Event_284: system.switch_cpus2 progress event, total committed:293704448, progress insts committed: 11294443, IPC: 01.12831
16908484239102: Event_285: system.switch_cpus3 progress event, total committed:293078297, progress insts committed: 11846224, IPC: 01.18344
16911817572435: Event_285: system.switch_cpus3 progress event, total committed:304931471, progress insts committed: 11853174, IPC: 01.18413
16911817572435: Event_284: system.switch_cpus2 progress event, total committed:305063325, progress insts committed: 11358877, IPC: 01.13475
16911817572435: Event_283: system.switch_cpus1 progress event, total committed:303081424, progress insts committed: 11195436, IPC: 01.11842
16911817572435: Event_282: system.switch_cpus0 progress event, total committed:304142764, progress insts committed: 11448191, IPC: 01.14367
16915150905768: Event_282: system.switch_cpus0 progress event, total committed:315646280, progress insts committed: 11503516, IPC: 001.1492
16915150905768: Event_283: system.switch_cpus1 progress event, total committed:314915795, progress insts committed: 11834371, IPC: 01.18225
16915150905768: Event_284: system.switch_cpus2 progress event, total committed:316862505, progress insts committed: 11799180, IPC: 01.17874
16915150905768: Event_285: system.switch_cpus3 progress event, total committed:316275946, progress insts committed: 11344475, IPC: 01.13331
16918484239101: Event_285: system.switch_cpus3 progress event, total committed:327555785, progress insts committed: 11279839, IPC: 01.12686
16918484239101: Event_284: system.switch_cpus2 progress event, total committed:328288213, progress insts committed: 11425708, IPC: 01.14143
16918484239101: Event_283: system.switch_cpus1 progress event, total committed:326726966, progress insts committed: 11811171, IPC: 01.17994
16918484239101: Event_282: system.switch_cpus0 progress event, total committed:327159171, progress insts committed: 11512891, IPC: 01.15014
16921817572434: Event_282: system.switch_cpus0 progress event, total committed:338733633, progress insts committed: 11574462, IPC: 01.15629
16921817572434: Event_283: system.switch_cpus1 progress event, total committed:338255770, progress insts committed: 11528804, IPC: 01.15173
16921817572434: Event_284: system.switch_cpus2 progress event, total committed:339598357, progress insts committed: 11310144, IPC: 01.12988
16921817572434: Event_285: system.switch_cpus3 progress event, total committed:338739678, progress insts committed: 11183893, IPC: 01.11727
16925150905767: Event_285: system.switch_cpus3 progress event, total committed:350666930, progress insts committed: 11927252, IPC: 01.19153
16925150905767: Event_284: system.switch_cpus2 progress event, total committed:351339297, progress insts committed: 11740940, IPC: 01.17292
16925150905767: Event_283: system.switch_cpus1 progress event, total committed:349919632, progress insts committed: 11663862, IPC: 01.16522
16925150905767: Event_282: system.switch_cpus0 progress event, total committed:350655117, progress insts committed: 11921484, IPC: 01.19096
16928484239100: Event_282: system.switch_cpus0 progress event, total committed:362164404, progress insts committed: 11509287, IPC: 01.14978
16928484239100: Event_283: system.switch_cpus1 progress event, total committed:361262357, progress insts committed: 11342725, IPC: 01.13314
16928484239100: Event_284: system.switch_cpus2 progress event, total committed:362881478, progress insts committed: 11542181, IPC: 01.15306
16928484239100: Event_285: system.switch_cpus3 progress event, total committed:362328337, progress insts committed: 11661407, IPC: 01.16497
16931817572433: Event_285: system.switch_cpus3 progress event, total committed:373071180, progress insts committed: 10742843, IPC: 01.07321
16931817572433: Event_284: system.switch_cpus2 progress event, total committed:374406373, progress insts committed: 11524895, IPC: 01.15134
16931817572433: Event_283: system.switch_cpus1 progress event, total committed:372471255, progress insts committed: 11208898, IPC: 01.11977
16931817572433: Event_282: system.switch_cpus0 progress event, total committed:372667747, progress insts committed: 10503343, IPC: 01.04928
16935150905766: Event_282: system.switch_cpus0 progress event, total committed:384379923, progress insts committed: 11712176, IPC: 01.17005
16935150905766: Event_283: system.switch_cpus1 progress event, total committed:384023617, progress insts committed: 11552362, IPC: 01.15408
16935150905766: Event_284: system.switch_cpus2 progress event, total committed:385890944, progress insts committed: 11484571, IPC: 01.14731
16935150905766: Event_285: system.switch_cpus3 progress event, total committed:384703220, progress insts committed: 11632040, IPC: 01.16204
16938484239099: Event_285: system.switch_cpus3 progress event, total committed:396431914, progress insts committed: 11728694, IPC: 001.1717
16938484239099: Event_284: system.switch_cpus2 progress event, total committed:397290935, progress insts committed: 11399991, IPC: 01.13886
16938484239099: Event_283: system.switch_cpus1 progress event, total committed:395454654, progress insts committed: 11431037, IPC: 01.14196
16938484239099: Event_282: system.switch_cpus0 progress event, total committed:396337585, progress insts committed: 11957662, IPC: 01.19457
16941817572432: Event_282: system.switch_cpus0 progress event, total committed:408252120, progress insts committed: 11914535, IPC: 01.19026
16941817572432: Event_283: system.switch_cpus1 progress event, total committed:406917481, progress insts committed: 11462827, IPC: 01.14514
16941817572432: Event_284: system.switch_cpus2 progress event, total committed:408608634, progress insts committed: 11317699, IPC: 01.13064
16941817572432: Event_285: system.switch_cpus3 progress event, total committed:408308090, progress insts committed: 11876176, IPC: 01.18643
16945150905765: Event_285: system.switch_cpus3 progress event, total committed:420122536, progress insts committed: 11814446, IPC: 01.18026
16945150905765: Event_284: system.switch_cpus2 progress event, total committed:420245175, progress insts committed: 11636541, IPC: 01.16249
16945150905765: Event_283: system.switch_cpus1 progress event, total committed:418469913, progress insts committed: 11552432, IPC: 01.15409
16945150905765: Event_282: system.switch_cpus0 progress event, total committed:419869728, progress insts committed: 11617608, IPC: 001.1606
Exiting @ tick 16948107170757 because a thread reached the max instruction count
