
---------- Begin Simulation Statistics ----------
final_tick                               15747680569320                       # Number of ticks from beginning of simulation (restored from checkpoints and never reset)
host_inst_rate                                 171803                       # Simulator instruction rate (inst/s)
host_mem_usage                               17618620                       # Number of bytes of host memory used
host_op_rate                                   283624                       # Simulator op (including micro ops) rate (op/s)
host_seconds                                  5820.26                       # Real time elapsed on the host
host_tick_rate                               16566884                       # Simulator tick rate (ticks/s)
sim_freq                                 1000000000000                       # Frequency of simulated ticks
sim_insts                                   999935569                       # Number of instructions simulated
sim_ops                                    1650763090                       # Number of ops (including micro ops) simulated
sim_seconds                                  0.096423                       # Number of seconds simulated
sim_ticks                                 96423491988                       # Number of ticks simulated
system.cpu0.Branches                                1                       # Number of branches fetched
system.cpu0.committedInsts                         14                       # Number of instructions committed
system.cpu0.committedOps                           23                       # Number of ops (including micro ops) committed
system.cpu0.idle_fraction                           0                       # Percentage of idle cycles
system.cpu0.l2bus.snoop_filter.hit_multi_requests            3                       # Number of requests hitting in the snoop filter with multiple (>1) holders of the requested data.
system.cpu0.l2bus.snoop_filter.hit_multi_snoops            0                       # Number of snoops hitting in the snoop filter with multiple (>1) holders of the requested data.
system.cpu0.l2bus.snoop_filter.hit_single_requests      2574846                       # Number of requests hitting in the snoop filter with a single holder of the requested data.
system.cpu0.l2bus.snoop_filter.hit_single_snoops         6233                       # Number of snoops hitting in the snoop filter with a single holder of the requested data.
system.cpu0.l2bus.snoop_filter.tot_requests      5019556                       # Total number of requests made to the snoop filter.
system.cpu0.l2bus.snoop_filter.tot_snoops         6233                       # Total number of snoops made to the snoop filter.
system.cpu0.mmucache.mmubus.snoop_filter.hit_multi_requests            0                       # Number of requests hitting in the snoop filter with multiple (>1) holders of the requested data.
system.cpu0.mmucache.mmubus.snoop_filter.hit_multi_snoops            0                       # Number of snoops hitting in the snoop filter with multiple (>1) holders of the requested data.
system.cpu0.mmucache.mmubus.snoop_filter.hit_single_requests            0                       # Number of requests hitting in the snoop filter with a single holder of the requested data.
system.cpu0.mmucache.mmubus.snoop_filter.hit_single_snoops            0                       # Number of snoops hitting in the snoop filter with a single holder of the requested data.
system.cpu0.mmucache.mmubus.snoop_filter.tot_requests            0                       # Total number of requests made to the snoop filter.
system.cpu0.mmucache.mmubus.snoop_filter.tot_snoops            0                       # Total number of snoops made to the snoop filter.
system.cpu0.not_idle_fraction                       1                       # Percentage of non-idle cycles
system.cpu0.numCycles                              30                       # number of cpu cycles simulated
system.cpu0.numWorkItemsCompleted                   0                       # number of work items this cpu completed
system.cpu0.numWorkItemsStarted                     0                       # number of work items this cpu started
system.cpu0.num_busy_cycles                        30                       # Number of busy cycles
system.cpu0.num_cc_register_reads                   5                       # number of times the CC registers were read
system.cpu0.num_cc_register_writes                  8                       # number of times the CC registers were written
system.cpu0.num_conditional_control_insts            1                       # number of instructions that are conditional controls
system.cpu0.num_fp_alu_accesses                    12                       # Number of float alu accesses
system.cpu0.num_fp_insts                           12                       # number of float instructions
system.cpu0.num_fp_register_reads                  21                       # number of times the floating registers were read
system.cpu0.num_fp_register_writes                 11                       # number of times the floating registers were written
system.cpu0.num_func_calls                          0                       # number of times a function call or return occured
system.cpu0.num_idle_cycles                         0                       # Number of idle cycles
system.cpu0.num_int_alu_accesses                   16                       # Number of integer alu accesses
system.cpu0.num_int_insts                          16                       # number of integer instructions
system.cpu0.num_int_register_reads                 33                       # number of times the integer registers were read
system.cpu0.num_int_register_writes                10                       # number of times the integer registers were written
system.cpu0.num_load_insts                          6                       # Number of load instructions
system.cpu0.num_mem_refs                            7                       # number of memory refs
system.cpu0.num_store_insts                         1                       # Number of store instructions
system.cpu0.num_vec_alu_accesses                    0                       # Number of vector alu accesses
system.cpu0.num_vec_insts                           0                       # number of vector instructions
system.cpu0.num_vec_register_reads                  0                       # number of times the vector registers were read
system.cpu0.num_vec_register_writes                 0                       # number of times the vector registers were written
system.cpu0.op_class::No_OpClass                    0      0.00%      0.00% # Class of executed instruction
system.cpu0.op_class::IntAlu                       10     43.48%     43.48% # Class of executed instruction
system.cpu0.op_class::IntMult                       0      0.00%     43.48% # Class of executed instruction
system.cpu0.op_class::IntDiv                        0      0.00%     43.48% # Class of executed instruction
system.cpu0.op_class::FloatAdd                      0      0.00%     43.48% # Class of executed instruction
system.cpu0.op_class::FloatCmp                      0      0.00%     43.48% # Class of executed instruction
system.cpu0.op_class::FloatCvt                      0      0.00%     43.48% # Class of executed instruction
system.cpu0.op_class::FloatMult                     0      0.00%     43.48% # Class of executed instruction
system.cpu0.op_class::FloatMultAcc                  0      0.00%     43.48% # Class of executed instruction
system.cpu0.op_class::FloatDiv                      0      0.00%     43.48% # Class of executed instruction
system.cpu0.op_class::FloatMisc                     0      0.00%     43.48% # Class of executed instruction
system.cpu0.op_class::FloatSqrt                     0      0.00%     43.48% # Class of executed instruction
system.cpu0.op_class::SimdAdd                       0      0.00%     43.48% # Class of executed instruction
system.cpu0.op_class::SimdAddAcc                    0      0.00%     43.48% # Class of executed instruction
system.cpu0.op_class::SimdAlu                       0      0.00%     43.48% # Class of executed instruction
system.cpu0.op_class::SimdCmp                       0      0.00%     43.48% # Class of executed instruction
system.cpu0.op_class::SimdCvt                       0      0.00%     43.48% # Class of executed instruction
system.cpu0.op_class::SimdMisc                      0      0.00%     43.48% # Class of executed instruction
system.cpu0.op_class::SimdMult                      0      0.00%     43.48% # Class of executed instruction
system.cpu0.op_class::SimdMultAcc                   0      0.00%     43.48% # Class of executed instruction
system.cpu0.op_class::SimdShift                     0      0.00%     43.48% # Class of executed instruction
system.cpu0.op_class::SimdShiftAcc                  0      0.00%     43.48% # Class of executed instruction
system.cpu0.op_class::SimdDiv                       0      0.00%     43.48% # Class of executed instruction
system.cpu0.op_class::SimdSqrt                      0      0.00%     43.48% # Class of executed instruction
system.cpu0.op_class::SimdFloatAdd                  4     17.39%     60.87% # Class of executed instruction
system.cpu0.op_class::SimdFloatAlu                  0      0.00%     60.87% # Class of executed instruction
system.cpu0.op_class::SimdFloatCmp                  0      0.00%     60.87% # Class of executed instruction
system.cpu0.op_class::SimdFloatCvt                  0      0.00%     60.87% # Class of executed instruction
system.cpu0.op_class::SimdFloatDiv                  0      0.00%     60.87% # Class of executed instruction
system.cpu0.op_class::SimdFloatMisc                 0      0.00%     60.87% # Class of executed instruction
system.cpu0.op_class::SimdFloatMult                 2      8.70%     69.57% # Class of executed instruction
system.cpu0.op_class::SimdFloatMultAcc              0      0.00%     69.57% # Class of executed instruction
system.cpu0.op_class::SimdFloatSqrt                 0      0.00%     69.57% # Class of executed instruction
system.cpu0.op_class::SimdReduceAdd                 0      0.00%     69.57% # Class of executed instruction
system.cpu0.op_class::SimdReduceAlu                 0      0.00%     69.57% # Class of executed instruction
system.cpu0.op_class::SimdReduceCmp                 0      0.00%     69.57% # Class of executed instruction
system.cpu0.op_class::SimdFloatReduceAdd            0      0.00%     69.57% # Class of executed instruction
system.cpu0.op_class::SimdFloatReduceCmp            0      0.00%     69.57% # Class of executed instruction
system.cpu0.op_class::SimdAes                       0      0.00%     69.57% # Class of executed instruction
system.cpu0.op_class::SimdAesMix                    0      0.00%     69.57% # Class of executed instruction
system.cpu0.op_class::SimdSha1Hash                  0      0.00%     69.57% # Class of executed instruction
system.cpu0.op_class::SimdSha1Hash2                 0      0.00%     69.57% # Class of executed instruction
system.cpu0.op_class::SimdSha256Hash                0      0.00%     69.57% # Class of executed instruction
system.cpu0.op_class::SimdSha256Hash2               0      0.00%     69.57% # Class of executed instruction
system.cpu0.op_class::SimdShaSigma2                 0      0.00%     69.57% # Class of executed instruction
system.cpu0.op_class::SimdShaSigma3                 0      0.00%     69.57% # Class of executed instruction
system.cpu0.op_class::SimdPredAlu                   0      0.00%     69.57% # Class of executed instruction
system.cpu0.op_class::MemRead                       2      8.70%     78.26% # Class of executed instruction
system.cpu0.op_class::MemWrite                      0      0.00%     78.26% # Class of executed instruction
system.cpu0.op_class::FloatMemRead                  4     17.39%     95.65% # Class of executed instruction
system.cpu0.op_class::FloatMemWrite                 1      4.35%    100.00% # Class of executed instruction
system.cpu0.op_class::IprAccess                     0      0.00%    100.00% # Class of executed instruction
system.cpu0.op_class::InstPrefetch                  0      0.00%    100.00% # Class of executed instruction
system.cpu0.op_class::total                        23                       # Class of executed instruction
system.cpu0.workload.numSyscalls                    0                       # Number of system calls
system.cpu1.Branches                                1                       # Number of branches fetched
system.cpu1.committedInsts                         14                       # Number of instructions committed
system.cpu1.committedOps                           23                       # Number of ops (including micro ops) committed
system.cpu1.idle_fraction                           0                       # Percentage of idle cycles
system.cpu1.l2bus.snoop_filter.hit_multi_requests            3                       # Number of requests hitting in the snoop filter with multiple (>1) holders of the requested data.
system.cpu1.l2bus.snoop_filter.hit_multi_snoops            0                       # Number of snoops hitting in the snoop filter with multiple (>1) holders of the requested data.
system.cpu1.l2bus.snoop_filter.hit_single_requests      2574734                       # Number of requests hitting in the snoop filter with a single holder of the requested data.
system.cpu1.l2bus.snoop_filter.hit_single_snoops         6170                       # Number of snoops hitting in the snoop filter with a single holder of the requested data.
system.cpu1.l2bus.snoop_filter.tot_requests      5019391                       # Total number of requests made to the snoop filter.
system.cpu1.l2bus.snoop_filter.tot_snoops         6170                       # Total number of snoops made to the snoop filter.
system.cpu1.mmucache.mmubus.snoop_filter.hit_multi_requests            0                       # Number of requests hitting in the snoop filter with multiple (>1) holders of the requested data.
system.cpu1.mmucache.mmubus.snoop_filter.hit_multi_snoops            0                       # Number of snoops hitting in the snoop filter with multiple (>1) holders of the requested data.
system.cpu1.mmucache.mmubus.snoop_filter.hit_single_requests            0                       # Number of requests hitting in the snoop filter with a single holder of the requested data.
system.cpu1.mmucache.mmubus.snoop_filter.hit_single_snoops            0                       # Number of snoops hitting in the snoop filter with a single holder of the requested data.
system.cpu1.mmucache.mmubus.snoop_filter.tot_requests            0                       # Total number of requests made to the snoop filter.
system.cpu1.mmucache.mmubus.snoop_filter.tot_snoops            0                       # Total number of snoops made to the snoop filter.
system.cpu1.not_idle_fraction                       1                       # Percentage of non-idle cycles
system.cpu1.numCycles                              30                       # number of cpu cycles simulated
system.cpu1.numWorkItemsCompleted                   0                       # number of work items this cpu completed
system.cpu1.numWorkItemsStarted                     0                       # number of work items this cpu started
system.cpu1.num_busy_cycles                        30                       # Number of busy cycles
system.cpu1.num_cc_register_reads                   5                       # number of times the CC registers were read
system.cpu1.num_cc_register_writes                  8                       # number of times the CC registers were written
system.cpu1.num_conditional_control_insts            1                       # number of instructions that are conditional controls
system.cpu1.num_fp_alu_accesses                    12                       # Number of float alu accesses
system.cpu1.num_fp_insts                           12                       # number of float instructions
system.cpu1.num_fp_register_reads                  21                       # number of times the floating registers were read
system.cpu1.num_fp_register_writes                 11                       # number of times the floating registers were written
system.cpu1.num_func_calls                          0                       # number of times a function call or return occured
system.cpu1.num_idle_cycles                         0                       # Number of idle cycles
system.cpu1.num_int_alu_accesses                   16                       # Number of integer alu accesses
system.cpu1.num_int_insts                          16                       # number of integer instructions
system.cpu1.num_int_register_reads                 33                       # number of times the integer registers were read
system.cpu1.num_int_register_writes                10                       # number of times the integer registers were written
system.cpu1.num_load_insts                          6                       # Number of load instructions
system.cpu1.num_mem_refs                            7                       # number of memory refs
system.cpu1.num_store_insts                         1                       # Number of store instructions
system.cpu1.num_vec_alu_accesses                    0                       # Number of vector alu accesses
system.cpu1.num_vec_insts                           0                       # number of vector instructions
system.cpu1.num_vec_register_reads                  0                       # number of times the vector registers were read
system.cpu1.num_vec_register_writes                 0                       # number of times the vector registers were written
system.cpu1.op_class::No_OpClass                    0      0.00%      0.00% # Class of executed instruction
system.cpu1.op_class::IntAlu                       10     43.48%     43.48% # Class of executed instruction
system.cpu1.op_class::IntMult                       0      0.00%     43.48% # Class of executed instruction
system.cpu1.op_class::IntDiv                        0      0.00%     43.48% # Class of executed instruction
system.cpu1.op_class::FloatAdd                      0      0.00%     43.48% # Class of executed instruction
system.cpu1.op_class::FloatCmp                      0      0.00%     43.48% # Class of executed instruction
system.cpu1.op_class::FloatCvt                      0      0.00%     43.48% # Class of executed instruction
system.cpu1.op_class::FloatMult                     0      0.00%     43.48% # Class of executed instruction
system.cpu1.op_class::FloatMultAcc                  0      0.00%     43.48% # Class of executed instruction
system.cpu1.op_class::FloatDiv                      0      0.00%     43.48% # Class of executed instruction
system.cpu1.op_class::FloatMisc                     0      0.00%     43.48% # Class of executed instruction
system.cpu1.op_class::FloatSqrt                     0      0.00%     43.48% # Class of executed instruction
system.cpu1.op_class::SimdAdd                       0      0.00%     43.48% # Class of executed instruction
system.cpu1.op_class::SimdAddAcc                    0      0.00%     43.48% # Class of executed instruction
system.cpu1.op_class::SimdAlu                       0      0.00%     43.48% # Class of executed instruction
system.cpu1.op_class::SimdCmp                       0      0.00%     43.48% # Class of executed instruction
system.cpu1.op_class::SimdCvt                       0      0.00%     43.48% # Class of executed instruction
system.cpu1.op_class::SimdMisc                      0      0.00%     43.48% # Class of executed instruction
system.cpu1.op_class::SimdMult                      0      0.00%     43.48% # Class of executed instruction
system.cpu1.op_class::SimdMultAcc                   0      0.00%     43.48% # Class of executed instruction
system.cpu1.op_class::SimdShift                     0      0.00%     43.48% # Class of executed instruction
system.cpu1.op_class::SimdShiftAcc                  0      0.00%     43.48% # Class of executed instruction
system.cpu1.op_class::SimdDiv                       0      0.00%     43.48% # Class of executed instruction
system.cpu1.op_class::SimdSqrt                      0      0.00%     43.48% # Class of executed instruction
system.cpu1.op_class::SimdFloatAdd                  4     17.39%     60.87% # Class of executed instruction
system.cpu1.op_class::SimdFloatAlu                  0      0.00%     60.87% # Class of executed instruction
system.cpu1.op_class::SimdFloatCmp                  0      0.00%     60.87% # Class of executed instruction
system.cpu1.op_class::SimdFloatCvt                  0      0.00%     60.87% # Class of executed instruction
system.cpu1.op_class::SimdFloatDiv                  0      0.00%     60.87% # Class of executed instruction
system.cpu1.op_class::SimdFloatMisc                 0      0.00%     60.87% # Class of executed instruction
system.cpu1.op_class::SimdFloatMult                 2      8.70%     69.57% # Class of executed instruction
system.cpu1.op_class::SimdFloatMultAcc              0      0.00%     69.57% # Class of executed instruction
system.cpu1.op_class::SimdFloatSqrt                 0      0.00%     69.57% # Class of executed instruction
system.cpu1.op_class::SimdReduceAdd                 0      0.00%     69.57% # Class of executed instruction
system.cpu1.op_class::SimdReduceAlu                 0      0.00%     69.57% # Class of executed instruction
system.cpu1.op_class::SimdReduceCmp                 0      0.00%     69.57% # Class of executed instruction
system.cpu1.op_class::SimdFloatReduceAdd            0      0.00%     69.57% # Class of executed instruction
system.cpu1.op_class::SimdFloatReduceCmp            0      0.00%     69.57% # Class of executed instruction
system.cpu1.op_class::SimdAes                       0      0.00%     69.57% # Class of executed instruction
system.cpu1.op_class::SimdAesMix                    0      0.00%     69.57% # Class of executed instruction
system.cpu1.op_class::SimdSha1Hash                  0      0.00%     69.57% # Class of executed instruction
system.cpu1.op_class::SimdSha1Hash2                 0      0.00%     69.57% # Class of executed instruction
system.cpu1.op_class::SimdSha256Hash                0      0.00%     69.57% # Class of executed instruction
system.cpu1.op_class::SimdSha256Hash2               0      0.00%     69.57% # Class of executed instruction
system.cpu1.op_class::SimdShaSigma2                 0      0.00%     69.57% # Class of executed instruction
system.cpu1.op_class::SimdShaSigma3                 0      0.00%     69.57% # Class of executed instruction
system.cpu1.op_class::SimdPredAlu                   0      0.00%     69.57% # Class of executed instruction
system.cpu1.op_class::MemRead                       2      8.70%     78.26% # Class of executed instruction
system.cpu1.op_class::MemWrite                      0      0.00%     78.26% # Class of executed instruction
system.cpu1.op_class::FloatMemRead                  4     17.39%     95.65% # Class of executed instruction
system.cpu1.op_class::FloatMemWrite                 1      4.35%    100.00% # Class of executed instruction
system.cpu1.op_class::IprAccess                     0      0.00%    100.00% # Class of executed instruction
system.cpu1.op_class::InstPrefetch                  0      0.00%    100.00% # Class of executed instruction
system.cpu1.op_class::total                        23                       # Class of executed instruction
system.cpu1.workload.numSyscalls                    0                       # Number of system calls
system.cpu2.Branches                                1                       # Number of branches fetched
system.cpu2.committedInsts                         14                       # Number of instructions committed
system.cpu2.committedOps                           23                       # Number of ops (including micro ops) committed
system.cpu2.idle_fraction                           0                       # Percentage of idle cycles
system.cpu2.l2bus.snoop_filter.hit_multi_requests            2                       # Number of requests hitting in the snoop filter with multiple (>1) holders of the requested data.
system.cpu2.l2bus.snoop_filter.hit_multi_snoops            0                       # Number of snoops hitting in the snoop filter with multiple (>1) holders of the requested data.
system.cpu2.l2bus.snoop_filter.hit_single_requests      2573814                       # Number of requests hitting in the snoop filter with a single holder of the requested data.
system.cpu2.l2bus.snoop_filter.hit_single_snoops         5773                       # Number of snoops hitting in the snoop filter with a single holder of the requested data.
system.cpu2.l2bus.snoop_filter.tot_requests      5018194                       # Total number of requests made to the snoop filter.
system.cpu2.l2bus.snoop_filter.tot_snoops         5773                       # Total number of snoops made to the snoop filter.
system.cpu2.mmucache.mmubus.snoop_filter.hit_multi_requests            0                       # Number of requests hitting in the snoop filter with multiple (>1) holders of the requested data.
system.cpu2.mmucache.mmubus.snoop_filter.hit_multi_snoops            0                       # Number of snoops hitting in the snoop filter with multiple (>1) holders of the requested data.
system.cpu2.mmucache.mmubus.snoop_filter.hit_single_requests            0                       # Number of requests hitting in the snoop filter with a single holder of the requested data.
system.cpu2.mmucache.mmubus.snoop_filter.hit_single_snoops            0                       # Number of snoops hitting in the snoop filter with a single holder of the requested data.
system.cpu2.mmucache.mmubus.snoop_filter.tot_requests            0                       # Total number of requests made to the snoop filter.
system.cpu2.mmucache.mmubus.snoop_filter.tot_snoops            0                       # Total number of snoops made to the snoop filter.
system.cpu2.not_idle_fraction                       1                       # Percentage of non-idle cycles
system.cpu2.numCycles                              30                       # number of cpu cycles simulated
system.cpu2.numWorkItemsCompleted                   0                       # number of work items this cpu completed
system.cpu2.numWorkItemsStarted                     0                       # number of work items this cpu started
system.cpu2.num_busy_cycles                        30                       # Number of busy cycles
system.cpu2.num_cc_register_reads                   5                       # number of times the CC registers were read
system.cpu2.num_cc_register_writes                  8                       # number of times the CC registers were written
system.cpu2.num_conditional_control_insts            1                       # number of instructions that are conditional controls
system.cpu2.num_fp_alu_accesses                    12                       # Number of float alu accesses
system.cpu2.num_fp_insts                           12                       # number of float instructions
system.cpu2.num_fp_register_reads                  21                       # number of times the floating registers were read
system.cpu2.num_fp_register_writes                 11                       # number of times the floating registers were written
system.cpu2.num_func_calls                          0                       # number of times a function call or return occured
system.cpu2.num_idle_cycles                         0                       # Number of idle cycles
system.cpu2.num_int_alu_accesses                   16                       # Number of integer alu accesses
system.cpu2.num_int_insts                          16                       # number of integer instructions
system.cpu2.num_int_register_reads                 33                       # number of times the integer registers were read
system.cpu2.num_int_register_writes                10                       # number of times the integer registers were written
system.cpu2.num_load_insts                          6                       # Number of load instructions
system.cpu2.num_mem_refs                            7                       # number of memory refs
system.cpu2.num_store_insts                         1                       # Number of store instructions
system.cpu2.num_vec_alu_accesses                    0                       # Number of vector alu accesses
system.cpu2.num_vec_insts                           0                       # number of vector instructions
system.cpu2.num_vec_register_reads                  0                       # number of times the vector registers were read
system.cpu2.num_vec_register_writes                 0                       # number of times the vector registers were written
system.cpu2.op_class::No_OpClass                    0      0.00%      0.00% # Class of executed instruction
system.cpu2.op_class::IntAlu                       10     43.48%     43.48% # Class of executed instruction
system.cpu2.op_class::IntMult                       0      0.00%     43.48% # Class of executed instruction
system.cpu2.op_class::IntDiv                        0      0.00%     43.48% # Class of executed instruction
system.cpu2.op_class::FloatAdd                      0      0.00%     43.48% # Class of executed instruction
system.cpu2.op_class::FloatCmp                      0      0.00%     43.48% # Class of executed instruction
system.cpu2.op_class::FloatCvt                      0      0.00%     43.48% # Class of executed instruction
system.cpu2.op_class::FloatMult                     0      0.00%     43.48% # Class of executed instruction
system.cpu2.op_class::FloatMultAcc                  0      0.00%     43.48% # Class of executed instruction
system.cpu2.op_class::FloatDiv                      0      0.00%     43.48% # Class of executed instruction
system.cpu2.op_class::FloatMisc                     0      0.00%     43.48% # Class of executed instruction
system.cpu2.op_class::FloatSqrt                     0      0.00%     43.48% # Class of executed instruction
system.cpu2.op_class::SimdAdd                       0      0.00%     43.48% # Class of executed instruction
system.cpu2.op_class::SimdAddAcc                    0      0.00%     43.48% # Class of executed instruction
system.cpu2.op_class::SimdAlu                       0      0.00%     43.48% # Class of executed instruction
system.cpu2.op_class::SimdCmp                       0      0.00%     43.48% # Class of executed instruction
system.cpu2.op_class::SimdCvt                       0      0.00%     43.48% # Class of executed instruction
system.cpu2.op_class::SimdMisc                      0      0.00%     43.48% # Class of executed instruction
system.cpu2.op_class::SimdMult                      0      0.00%     43.48% # Class of executed instruction
system.cpu2.op_class::SimdMultAcc                   0      0.00%     43.48% # Class of executed instruction
system.cpu2.op_class::SimdShift                     0      0.00%     43.48% # Class of executed instruction
system.cpu2.op_class::SimdShiftAcc                  0      0.00%     43.48% # Class of executed instruction
system.cpu2.op_class::SimdDiv                       0      0.00%     43.48% # Class of executed instruction
system.cpu2.op_class::SimdSqrt                      0      0.00%     43.48% # Class of executed instruction
system.cpu2.op_class::SimdFloatAdd                  4     17.39%     60.87% # Class of executed instruction
system.cpu2.op_class::SimdFloatAlu                  0      0.00%     60.87% # Class of executed instruction
system.cpu2.op_class::SimdFloatCmp                  0      0.00%     60.87% # Class of executed instruction
system.cpu2.op_class::SimdFloatCvt                  0      0.00%     60.87% # Class of executed instruction
system.cpu2.op_class::SimdFloatDiv                  0      0.00%     60.87% # Class of executed instruction
system.cpu2.op_class::SimdFloatMisc                 0      0.00%     60.87% # Class of executed instruction
system.cpu2.op_class::SimdFloatMult                 2      8.70%     69.57% # Class of executed instruction
system.cpu2.op_class::SimdFloatMultAcc              0      0.00%     69.57% # Class of executed instruction
system.cpu2.op_class::SimdFloatSqrt                 0      0.00%     69.57% # Class of executed instruction
system.cpu2.op_class::SimdReduceAdd                 0      0.00%     69.57% # Class of executed instruction
system.cpu2.op_class::SimdReduceAlu                 0      0.00%     69.57% # Class of executed instruction
system.cpu2.op_class::SimdReduceCmp                 0      0.00%     69.57% # Class of executed instruction
system.cpu2.op_class::SimdFloatReduceAdd            0      0.00%     69.57% # Class of executed instruction
system.cpu2.op_class::SimdFloatReduceCmp            0      0.00%     69.57% # Class of executed instruction
system.cpu2.op_class::SimdAes                       0      0.00%     69.57% # Class of executed instruction
system.cpu2.op_class::SimdAesMix                    0      0.00%     69.57% # Class of executed instruction
system.cpu2.op_class::SimdSha1Hash                  0      0.00%     69.57% # Class of executed instruction
system.cpu2.op_class::SimdSha1Hash2                 0      0.00%     69.57% # Class of executed instruction
system.cpu2.op_class::SimdSha256Hash                0      0.00%     69.57% # Class of executed instruction
system.cpu2.op_class::SimdSha256Hash2               0      0.00%     69.57% # Class of executed instruction
system.cpu2.op_class::SimdShaSigma2                 0      0.00%     69.57% # Class of executed instruction
system.cpu2.op_class::SimdShaSigma3                 0      0.00%     69.57% # Class of executed instruction
system.cpu2.op_class::SimdPredAlu                   0      0.00%     69.57% # Class of executed instruction
system.cpu2.op_class::MemRead                       2      8.70%     78.26% # Class of executed instruction
system.cpu2.op_class::MemWrite                      0      0.00%     78.26% # Class of executed instruction
system.cpu2.op_class::FloatMemRead                  4     17.39%     95.65% # Class of executed instruction
system.cpu2.op_class::FloatMemWrite                 1      4.35%    100.00% # Class of executed instruction
system.cpu2.op_class::IprAccess                     0      0.00%    100.00% # Class of executed instruction
system.cpu2.op_class::InstPrefetch                  0      0.00%    100.00% # Class of executed instruction
system.cpu2.op_class::total                        23                       # Class of executed instruction
system.cpu2.workload.numSyscalls                    0                       # Number of system calls
system.cpu3.Branches                                1                       # Number of branches fetched
system.cpu3.committedInsts                         14                       # Number of instructions committed
system.cpu3.committedOps                           23                       # Number of ops (including micro ops) committed
system.cpu3.idle_fraction                           0                       # Percentage of idle cycles
system.cpu3.l2bus.snoop_filter.hit_multi_requests            2                       # Number of requests hitting in the snoop filter with multiple (>1) holders of the requested data.
system.cpu3.l2bus.snoop_filter.hit_multi_snoops            0                       # Number of snoops hitting in the snoop filter with multiple (>1) holders of the requested data.
system.cpu3.l2bus.snoop_filter.hit_single_requests      2573885                       # Number of requests hitting in the snoop filter with a single holder of the requested data.
system.cpu3.l2bus.snoop_filter.hit_single_snoops         5768                       # Number of snoops hitting in the snoop filter with a single holder of the requested data.
system.cpu3.l2bus.snoop_filter.tot_requests      5018400                       # Total number of requests made to the snoop filter.
system.cpu3.l2bus.snoop_filter.tot_snoops         5768                       # Total number of snoops made to the snoop filter.
system.cpu3.mmucache.mmubus.snoop_filter.hit_multi_requests            0                       # Number of requests hitting in the snoop filter with multiple (>1) holders of the requested data.
system.cpu3.mmucache.mmubus.snoop_filter.hit_multi_snoops            0                       # Number of snoops hitting in the snoop filter with multiple (>1) holders of the requested data.
system.cpu3.mmucache.mmubus.snoop_filter.hit_single_requests            0                       # Number of requests hitting in the snoop filter with a single holder of the requested data.
system.cpu3.mmucache.mmubus.snoop_filter.hit_single_snoops            0                       # Number of snoops hitting in the snoop filter with a single holder of the requested data.
system.cpu3.mmucache.mmubus.snoop_filter.tot_requests            0                       # Total number of requests made to the snoop filter.
system.cpu3.mmucache.mmubus.snoop_filter.tot_snoops            0                       # Total number of snoops made to the snoop filter.
system.cpu3.not_idle_fraction                       1                       # Percentage of non-idle cycles
system.cpu3.numCycles                              30                       # number of cpu cycles simulated
system.cpu3.numWorkItemsCompleted                   0                       # number of work items this cpu completed
system.cpu3.numWorkItemsStarted                     0                       # number of work items this cpu started
system.cpu3.num_busy_cycles                        30                       # Number of busy cycles
system.cpu3.num_cc_register_reads                   5                       # number of times the CC registers were read
system.cpu3.num_cc_register_writes                  8                       # number of times the CC registers were written
system.cpu3.num_conditional_control_insts            1                       # number of instructions that are conditional controls
system.cpu3.num_fp_alu_accesses                    12                       # Number of float alu accesses
system.cpu3.num_fp_insts                           12                       # number of float instructions
system.cpu3.num_fp_register_reads                  21                       # number of times the floating registers were read
system.cpu3.num_fp_register_writes                 11                       # number of times the floating registers were written
system.cpu3.num_func_calls                          0                       # number of times a function call or return occured
system.cpu3.num_idle_cycles                         0                       # Number of idle cycles
system.cpu3.num_int_alu_accesses                   16                       # Number of integer alu accesses
system.cpu3.num_int_insts                          16                       # number of integer instructions
system.cpu3.num_int_register_reads                 33                       # number of times the integer registers were read
system.cpu3.num_int_register_writes                10                       # number of times the integer registers were written
system.cpu3.num_load_insts                          6                       # Number of load instructions
system.cpu3.num_mem_refs                            7                       # number of memory refs
system.cpu3.num_store_insts                         1                       # Number of store instructions
system.cpu3.num_vec_alu_accesses                    0                       # Number of vector alu accesses
system.cpu3.num_vec_insts                           0                       # number of vector instructions
system.cpu3.num_vec_register_reads                  0                       # number of times the vector registers were read
system.cpu3.num_vec_register_writes                 0                       # number of times the vector registers were written
system.cpu3.op_class::No_OpClass                    0      0.00%      0.00% # Class of executed instruction
system.cpu3.op_class::IntAlu                       10     43.48%     43.48% # Class of executed instruction
system.cpu3.op_class::IntMult                       0      0.00%     43.48% # Class of executed instruction
system.cpu3.op_class::IntDiv                        0      0.00%     43.48% # Class of executed instruction
system.cpu3.op_class::FloatAdd                      0      0.00%     43.48% # Class of executed instruction
system.cpu3.op_class::FloatCmp                      0      0.00%     43.48% # Class of executed instruction
system.cpu3.op_class::FloatCvt                      0      0.00%     43.48% # Class of executed instruction
system.cpu3.op_class::FloatMult                     0      0.00%     43.48% # Class of executed instruction
system.cpu3.op_class::FloatMultAcc                  0      0.00%     43.48% # Class of executed instruction
system.cpu3.op_class::FloatDiv                      0      0.00%     43.48% # Class of executed instruction
system.cpu3.op_class::FloatMisc                     0      0.00%     43.48% # Class of executed instruction
system.cpu3.op_class::FloatSqrt                     0      0.00%     43.48% # Class of executed instruction
system.cpu3.op_class::SimdAdd                       0      0.00%     43.48% # Class of executed instruction
system.cpu3.op_class::SimdAddAcc                    0      0.00%     43.48% # Class of executed instruction
system.cpu3.op_class::SimdAlu                       0      0.00%     43.48% # Class of executed instruction
system.cpu3.op_class::SimdCmp                       0      0.00%     43.48% # Class of executed instruction
system.cpu3.op_class::SimdCvt                       0      0.00%     43.48% # Class of executed instruction
system.cpu3.op_class::SimdMisc                      0      0.00%     43.48% # Class of executed instruction
system.cpu3.op_class::SimdMult                      0      0.00%     43.48% # Class of executed instruction
system.cpu3.op_class::SimdMultAcc                   0      0.00%     43.48% # Class of executed instruction
system.cpu3.op_class::SimdShift                     0      0.00%     43.48% # Class of executed instruction
system.cpu3.op_class::SimdShiftAcc                  0      0.00%     43.48% # Class of executed instruction
system.cpu3.op_class::SimdDiv                       0      0.00%     43.48% # Class of executed instruction
system.cpu3.op_class::SimdSqrt                      0      0.00%     43.48% # Class of executed instruction
system.cpu3.op_class::SimdFloatAdd                  4     17.39%     60.87% # Class of executed instruction
system.cpu3.op_class::SimdFloatAlu                  0      0.00%     60.87% # Class of executed instruction
system.cpu3.op_class::SimdFloatCmp                  0      0.00%     60.87% # Class of executed instruction
system.cpu3.op_class::SimdFloatCvt                  0      0.00%     60.87% # Class of executed instruction
system.cpu3.op_class::SimdFloatDiv                  0      0.00%     60.87% # Class of executed instruction
system.cpu3.op_class::SimdFloatMisc                 0      0.00%     60.87% # Class of executed instruction
system.cpu3.op_class::SimdFloatMult                 2      8.70%     69.57% # Class of executed instruction
system.cpu3.op_class::SimdFloatMultAcc              0      0.00%     69.57% # Class of executed instruction
system.cpu3.op_class::SimdFloatSqrt                 0      0.00%     69.57% # Class of executed instruction
system.cpu3.op_class::SimdReduceAdd                 0      0.00%     69.57% # Class of executed instruction
system.cpu3.op_class::SimdReduceAlu                 0      0.00%     69.57% # Class of executed instruction
system.cpu3.op_class::SimdReduceCmp                 0      0.00%     69.57% # Class of executed instruction
system.cpu3.op_class::SimdFloatReduceAdd            0      0.00%     69.57% # Class of executed instruction
system.cpu3.op_class::SimdFloatReduceCmp            0      0.00%     69.57% # Class of executed instruction
system.cpu3.op_class::SimdAes                       0      0.00%     69.57% # Class of executed instruction
system.cpu3.op_class::SimdAesMix                    0      0.00%     69.57% # Class of executed instruction
system.cpu3.op_class::SimdSha1Hash                  0      0.00%     69.57% # Class of executed instruction
system.cpu3.op_class::SimdSha1Hash2                 0      0.00%     69.57% # Class of executed instruction
system.cpu3.op_class::SimdSha256Hash                0      0.00%     69.57% # Class of executed instruction
system.cpu3.op_class::SimdSha256Hash2               0      0.00%     69.57% # Class of executed instruction
system.cpu3.op_class::SimdShaSigma2                 0      0.00%     69.57% # Class of executed instruction
system.cpu3.op_class::SimdShaSigma3                 0      0.00%     69.57% # Class of executed instruction
system.cpu3.op_class::SimdPredAlu                   0      0.00%     69.57% # Class of executed instruction
system.cpu3.op_class::MemRead                       2      8.70%     78.26% # Class of executed instruction
system.cpu3.op_class::MemWrite                      0      0.00%     78.26% # Class of executed instruction
system.cpu3.op_class::FloatMemRead                  4     17.39%     95.65% # Class of executed instruction
system.cpu3.op_class::FloatMemWrite                 1      4.35%    100.00% # Class of executed instruction
system.cpu3.op_class::IprAccess                     0      0.00%    100.00% # Class of executed instruction
system.cpu3.op_class::InstPrefetch                  0      0.00%    100.00% # Class of executed instruction
system.cpu3.op_class::total                        23                       # Class of executed instruction
system.cpu3.workload.numSyscalls                    0                       # Number of system calls
system.l3bus.snoop_filter.hit_multi_requests            0                       # Number of requests hitting in the snoop filter with multiple (>1) holders of the requested data.
system.l3bus.snoop_filter.hit_multi_snoops            0                       # Number of snoops hitting in the snoop filter with multiple (>1) holders of the requested data.
system.l3bus.snoop_filter.hit_single_requests      7480883                       # Number of requests hitting in the snoop filter with a single holder of the requested data.
system.l3bus.snoop_filter.hit_single_snoops            6                       # Number of snoops hitting in the snoop filter with a single holder of the requested data.
system.l3bus.snoop_filter.tot_requests       15025508                       # Total number of requests made to the snoop filter.
system.l3bus.snoop_filter.tot_snoops                6                       # Total number of snoops made to the snoop filter.
system.membus.snoop_filter.hit_multi_requests            0                       # Number of requests hitting in the snoop filter with multiple (>1) holders of the requested data.
system.membus.snoop_filter.hit_multi_snoops            0                       # Number of snoops hitting in the snoop filter with multiple (>1) holders of the requested data.
system.membus.snoop_filter.hit_single_requests      4723485                       # Number of requests hitting in the snoop filter with a single holder of the requested data.
system.membus.snoop_filter.hit_single_snoops            0                       # Number of snoops hitting in the snoop filter with a single holder of the requested data.
system.membus.snoop_filter.tot_requests       9518282                       # Total number of requests made to the snoop filter.
system.membus.snoop_filter.tot_snoops               0                       # Total number of snoops made to the snoop filter.
system.switch_cpus0.cc_regfile_reads        130716304                       # number of cc regfile reads
system.switch_cpus0.cc_regfile_writes        97931683                       # number of cc regfile writes
system.switch_cpus0.committedInsts          250000000                       # Number of Instructions Simulated
system.switch_cpus0.committedOps            412717679                       # Number of Ops (including micro ops) Simulated
system.switch_cpus0.cpi                      1.158240                       # CPI: Cycles Per Instruction
system.switch_cpus0.cpi_total                1.158240                       # CPI: Total CPI of All Threads
system.switch_cpus0.fp_regfile_reads        302028290                       # number of floating regfile reads
system.switch_cpus0.fp_regfile_writes       159571242                       # number of floating regfile writes
system.switch_cpus0.idleCycles                 104545                       # Total number of cycles that the CPU has spent unscheduled due to idling
system.switch_cpus0.iew.branchMispredicts        19000                       # Number of branch mispredicts detected at execute
system.switch_cpus0.iew.exec_branches        28475748                       # Number of branches executed
system.switch_cpus0.iew.exec_nop                    0                       # number of nop insts executed
system.switch_cpus0.iew.exec_rate            1.426717                       # Inst execution rate
system.switch_cpus0.iew.exec_refs            96922278                       # number of memory reference insts executed
system.switch_cpus0.iew.exec_stores          27538836                       # Number of stores executed
system.switch_cpus0.iew.exec_swp                    0                       # number of swp insts executed
system.switch_cpus0.iew.iewBlockCycles       60401741                       # Number of cycles IEW is blocking
system.switch_cpus0.iew.iewDispLoadInsts     69427812                       # Number of dispatched load instructions
system.switch_cpus0.iew.iewDispNonSpecInsts            3                       # Number of dispatched non-speculative instructions
system.switch_cpus0.iew.iewDispSquashedInsts          523                       # Number of squashed instructions skipped by dispatch
system.switch_cpus0.iew.iewDispStoreInsts     27595293                       # Number of dispatched store instructions
system.switch_cpus0.iew.iewDispatchedInsts    413427520                       # Number of instructions dispatched to IQ
system.switch_cpus0.iew.iewExecLoadInsts     69383442                       # Number of load instructions executed
system.switch_cpus0.iew.iewExecSquashedInsts        56194                       # Number of squashed instructions skipped in execute
system.switch_cpus0.iew.iewExecutedInsts    413120266                       # Number of executed instructions
system.switch_cpus0.iew.iewIQFullEvents        148233                       # Number of times the IQ has become full, causing a stall
system.switch_cpus0.iew.iewIdleCycles               0                       # Number of cycles IEW is idle
system.switch_cpus0.iew.iewLSQFullEvents     25723071                       # Number of times the LSQ has become full, causing a stall
system.switch_cpus0.iew.iewSquashCycles         20808                       # Number of cycles IEW is squashing
system.switch_cpus0.iew.iewUnblockCycles     25989336                       # Number of cycles IEW is unblocking
system.switch_cpus0.iew.memOrderViolationEvents         2273                       # Number of memory order violations
system.switch_cpus0.iew.predictedNotTakenIncorrect         6325                       # Number of branches that were predicted not taken incorrectly
system.switch_cpus0.iew.predictedTakenIncorrect        12675                       # Number of branches that were predicted taken incorrectly
system.switch_cpus0.iew.wb_consumers        507966975                       # num instructions consuming a value
system.switch_cpus0.iew.wb_count            413077523                       # cumulative count of insts written-back
system.switch_cpus0.iew.wb_fanout            0.602668                       # average fanout of values written-back
system.switch_cpus0.iew.wb_producers        306135379                       # num instructions producing a value
system.switch_cpus0.iew.wb_rate              1.426570                       # insts written-back per cycle
system.switch_cpus0.iew.wb_sent             413096420                       # cumulative count of insts sent to commit
system.switch_cpus0.int_regfile_reads       405482256                       # number of integer regfile reads
system.switch_cpus0.int_regfile_writes      190914980                       # number of integer regfile writes
system.switch_cpus0.ipc                      0.863379                       # IPC: Instructions Per Cycle
system.switch_cpus0.ipc_total                0.863379                       # IPC: Total IPC of All Threads
system.switch_cpus0.iq.FU_type_0::No_OpClass        11923      0.00%      0.00% # Type of FU issued
system.switch_cpus0.iq.FU_type_0::IntAlu    221793538     53.68%     53.68% # Type of FU issued
system.switch_cpus0.iq.FU_type_0::IntMult        17894      0.00%     53.69% # Type of FU issued
system.switch_cpus0.iq.FU_type_0::IntDiv            0      0.00%     53.69% # Type of FU issued
system.switch_cpus0.iq.FU_type_0::FloatAdd     12497650      3.02%     56.71% # Type of FU issued
system.switch_cpus0.iq.FU_type_0::FloatCmp            0      0.00%     56.71% # Type of FU issued
system.switch_cpus0.iq.FU_type_0::FloatCvt            0      0.00%     56.71% # Type of FU issued
system.switch_cpus0.iq.FU_type_0::FloatMult            0      0.00%     56.71% # Type of FU issued
system.switch_cpus0.iq.FU_type_0::FloatMultAcc            0      0.00%     56.71% # Type of FU issued
system.switch_cpus0.iq.FU_type_0::FloatDiv            0      0.00%     56.71% # Type of FU issued
system.switch_cpus0.iq.FU_type_0::FloatMisc            0      0.00%     56.71% # Type of FU issued
system.switch_cpus0.iq.FU_type_0::FloatSqrt            0      0.00%     56.71% # Type of FU issued
system.switch_cpus0.iq.FU_type_0::SimdAdd            0      0.00%     56.71% # Type of FU issued
system.switch_cpus0.iq.FU_type_0::SimdAddAcc            0      0.00%     56.71% # Type of FU issued
system.switch_cpus0.iq.FU_type_0::SimdAlu      8957195      2.17%     58.88% # Type of FU issued
system.switch_cpus0.iq.FU_type_0::SimdCmp            0      0.00%     58.88% # Type of FU issued
system.switch_cpus0.iq.FU_type_0::SimdCvt            0      0.00%     58.88% # Type of FU issued
system.switch_cpus0.iq.FU_type_0::SimdMisc      5331530      1.29%     60.17% # Type of FU issued
system.switch_cpus0.iq.FU_type_0::SimdMult            0      0.00%     60.17% # Type of FU issued
system.switch_cpus0.iq.FU_type_0::SimdMultAcc            0      0.00%     60.17% # Type of FU issued
system.switch_cpus0.iq.FU_type_0::SimdShift            0      0.00%     60.17% # Type of FU issued
system.switch_cpus0.iq.FU_type_0::SimdShiftAcc            0      0.00%     60.17% # Type of FU issued
system.switch_cpus0.iq.FU_type_0::SimdDiv            0      0.00%     60.17% # Type of FU issued
system.switch_cpus0.iq.FU_type_0::SimdSqrt            0      0.00%     60.17% # Type of FU issued
system.switch_cpus0.iq.FU_type_0::SimdFloatAdd     30064244      7.28%     67.45% # Type of FU issued
system.switch_cpus0.iq.FU_type_0::SimdFloatAlu            0      0.00%     67.45% # Type of FU issued
system.switch_cpus0.iq.FU_type_0::SimdFloatCmp       376832      0.09%     67.54% # Type of FU issued
system.switch_cpus0.iq.FU_type_0::SimdFloatCvt      6594440      1.60%     69.13% # Type of FU issued
system.switch_cpus0.iq.FU_type_0::SimdFloatDiv      3034038      0.73%     69.87% # Type of FU issued
system.switch_cpus0.iq.FU_type_0::SimdFloatMisc            0      0.00%     69.87% # Type of FU issued
system.switch_cpus0.iq.FU_type_0::SimdFloatMult     27037184      6.54%     76.41% # Type of FU issued
system.switch_cpus0.iq.FU_type_0::SimdFloatMultAcc            0      0.00%     76.41% # Type of FU issued
system.switch_cpus0.iq.FU_type_0::SimdFloatSqrt       506044      0.12%     76.53% # Type of FU issued
system.switch_cpus0.iq.FU_type_0::SimdReduceAdd            0      0.00%     76.53% # Type of FU issued
system.switch_cpus0.iq.FU_type_0::SimdReduceAlu            0      0.00%     76.53% # Type of FU issued
system.switch_cpus0.iq.FU_type_0::SimdReduceCmp            0      0.00%     76.53% # Type of FU issued
system.switch_cpus0.iq.FU_type_0::SimdFloatReduceAdd            0      0.00%     76.53% # Type of FU issued
system.switch_cpus0.iq.FU_type_0::SimdFloatReduceCmp            0      0.00%     76.53% # Type of FU issued
system.switch_cpus0.iq.FU_type_0::SimdAes            0      0.00%     76.53% # Type of FU issued
system.switch_cpus0.iq.FU_type_0::SimdAesMix            0      0.00%     76.53% # Type of FU issued
system.switch_cpus0.iq.FU_type_0::SimdSha1Hash            0      0.00%     76.53% # Type of FU issued
system.switch_cpus0.iq.FU_type_0::SimdSha1Hash2            0      0.00%     76.53% # Type of FU issued
system.switch_cpus0.iq.FU_type_0::SimdSha256Hash            0      0.00%     76.53% # Type of FU issued
system.switch_cpus0.iq.FU_type_0::SimdSha256Hash2            0      0.00%     76.53% # Type of FU issued
system.switch_cpus0.iq.FU_type_0::SimdShaSigma2            0      0.00%     76.53% # Type of FU issued
system.switch_cpus0.iq.FU_type_0::SimdShaSigma3            0      0.00%     76.53% # Type of FU issued
system.switch_cpus0.iq.FU_type_0::SimdPredAlu            0      0.00%     76.53% # Type of FU issued
system.switch_cpus0.iq.FU_type_0::MemRead     26779160      6.48%     83.02% # Type of FU issued
system.switch_cpus0.iq.FU_type_0::MemWrite     13501423      3.27%     86.28% # Type of FU issued
system.switch_cpus0.iq.FU_type_0::FloatMemRead     42622623     10.32%     96.60% # Type of FU issued
system.switch_cpus0.iq.FU_type_0::FloatMemWrite     14050745      3.40%    100.00% # Type of FU issued
system.switch_cpus0.iq.FU_type_0::IprAccess            0      0.00%    100.00% # Type of FU issued
system.switch_cpus0.iq.FU_type_0::InstPrefetch            0      0.00%    100.00% # Type of FU issued
system.switch_cpus0.iq.FU_type_0::total     413176463                       # Type of FU issued
system.switch_cpus0.iq.fp_alu_accesses      187494913                       # Number of floating point alu accesses
system.switch_cpus0.iq.fp_inst_queue_reads    373076943                       # Number of floating instruction queue reads
system.switch_cpus0.iq.fp_inst_queue_wakeup_accesses    185534240                       # Number of floating instruction queue wakeup accesses
system.switch_cpus0.iq.fp_inst_queue_writes    185989446                       # Number of floating instruction queue writes
system.switch_cpus0.iq.fu_busy_cnt            6577370                       # FU busy when requested
system.switch_cpus0.iq.fu_busy_rate          0.015919                       # FU busy rate (busy events/executed inst)
system.switch_cpus0.iq.fu_full::No_OpClass            0      0.00%      0.00% # attempts to use FU when none available
system.switch_cpus0.iq.fu_full::IntAlu        2870110     43.64%     43.64% # attempts to use FU when none available
system.switch_cpus0.iq.fu_full::IntMult             0      0.00%     43.64% # attempts to use FU when none available
system.switch_cpus0.iq.fu_full::IntDiv              0      0.00%     43.64% # attempts to use FU when none available
system.switch_cpus0.iq.fu_full::FloatAdd          484      0.01%     43.64% # attempts to use FU when none available
system.switch_cpus0.iq.fu_full::FloatCmp            0      0.00%     43.64% # attempts to use FU when none available
system.switch_cpus0.iq.fu_full::FloatCvt            0      0.00%     43.64% # attempts to use FU when none available
system.switch_cpus0.iq.fu_full::FloatMult            0      0.00%     43.64% # attempts to use FU when none available
system.switch_cpus0.iq.fu_full::FloatMultAcc            0      0.00%     43.64% # attempts to use FU when none available
system.switch_cpus0.iq.fu_full::FloatDiv            0      0.00%     43.64% # attempts to use FU when none available
system.switch_cpus0.iq.fu_full::FloatMisc            0      0.00%     43.64% # attempts to use FU when none available
system.switch_cpus0.iq.fu_full::FloatSqrt            0      0.00%     43.64% # attempts to use FU when none available
system.switch_cpus0.iq.fu_full::SimdAdd             0      0.00%     43.64% # attempts to use FU when none available
system.switch_cpus0.iq.fu_full::SimdAddAcc            0      0.00%     43.64% # attempts to use FU when none available
system.switch_cpus0.iq.fu_full::SimdAlu        117228      1.78%     45.43% # attempts to use FU when none available
system.switch_cpus0.iq.fu_full::SimdCmp             0      0.00%     45.43% # attempts to use FU when none available
system.switch_cpus0.iq.fu_full::SimdCvt             0      0.00%     45.43% # attempts to use FU when none available
system.switch_cpus0.iq.fu_full::SimdMisc            0      0.00%     45.43% # attempts to use FU when none available
system.switch_cpus0.iq.fu_full::SimdMult            0      0.00%     45.43% # attempts to use FU when none available
system.switch_cpus0.iq.fu_full::SimdMultAcc            0      0.00%     45.43% # attempts to use FU when none available
system.switch_cpus0.iq.fu_full::SimdShift            0      0.00%     45.43% # attempts to use FU when none available
system.switch_cpus0.iq.fu_full::SimdShiftAcc            0      0.00%     45.43% # attempts to use FU when none available
system.switch_cpus0.iq.fu_full::SimdDiv             0      0.00%     45.43% # attempts to use FU when none available
system.switch_cpus0.iq.fu_full::SimdSqrt            0      0.00%     45.43% # attempts to use FU when none available
system.switch_cpus0.iq.fu_full::SimdFloatAdd       162573      2.47%     47.90% # attempts to use FU when none available
system.switch_cpus0.iq.fu_full::SimdFloatAlu            0      0.00%     47.90% # attempts to use FU when none available
system.switch_cpus0.iq.fu_full::SimdFloatCmp            0      0.00%     47.90% # attempts to use FU when none available
system.switch_cpus0.iq.fu_full::SimdFloatCvt          523      0.01%     47.91% # attempts to use FU when none available
system.switch_cpus0.iq.fu_full::SimdFloatDiv        19512      0.30%     48.20% # attempts to use FU when none available
system.switch_cpus0.iq.fu_full::SimdFloatMisc            0      0.00%     48.20% # attempts to use FU when none available
system.switch_cpus0.iq.fu_full::SimdFloatMult       238323      3.62%     51.83% # attempts to use FU when none available
system.switch_cpus0.iq.fu_full::SimdFloatMultAcc            0      0.00%     51.83% # attempts to use FU when none available
system.switch_cpus0.iq.fu_full::SimdFloatSqrt          547      0.01%     51.83% # attempts to use FU when none available
system.switch_cpus0.iq.fu_full::SimdReduceAdd            0      0.00%     51.83% # attempts to use FU when none available
system.switch_cpus0.iq.fu_full::SimdReduceAlu            0      0.00%     51.83% # attempts to use FU when none available
system.switch_cpus0.iq.fu_full::SimdReduceCmp            0      0.00%     51.83% # attempts to use FU when none available
system.switch_cpus0.iq.fu_full::SimdFloatReduceAdd            0      0.00%     51.83% # attempts to use FU when none available
system.switch_cpus0.iq.fu_full::SimdFloatReduceCmp            0      0.00%     51.83% # attempts to use FU when none available
system.switch_cpus0.iq.fu_full::SimdAes             0      0.00%     51.83% # attempts to use FU when none available
system.switch_cpus0.iq.fu_full::SimdAesMix            0      0.00%     51.83% # attempts to use FU when none available
system.switch_cpus0.iq.fu_full::SimdSha1Hash            0      0.00%     51.83% # attempts to use FU when none available
system.switch_cpus0.iq.fu_full::SimdSha1Hash2            0      0.00%     51.83% # attempts to use FU when none available
system.switch_cpus0.iq.fu_full::SimdSha256Hash            0      0.00%     51.83% # attempts to use FU when none available
system.switch_cpus0.iq.fu_full::SimdSha256Hash2            0      0.00%     51.83% # attempts to use FU when none available
system.switch_cpus0.iq.fu_full::SimdShaSigma2            0      0.00%     51.83% # attempts to use FU when none available
system.switch_cpus0.iq.fu_full::SimdShaSigma3            0      0.00%     51.83% # attempts to use FU when none available
system.switch_cpus0.iq.fu_full::SimdPredAlu            0      0.00%     51.83% # attempts to use FU when none available
system.switch_cpus0.iq.fu_full::MemRead       1294580     19.68%     71.52% # attempts to use FU when none available
system.switch_cpus0.iq.fu_full::MemWrite       548235      8.34%     79.85% # attempts to use FU when none available
system.switch_cpus0.iq.fu_full::FloatMemRead      1033885     15.72%     95.57% # attempts to use FU when none available
system.switch_cpus0.iq.fu_full::FloatMemWrite       291370      4.43%    100.00% # attempts to use FU when none available
system.switch_cpus0.iq.fu_full::IprAccess            0      0.00%    100.00% # attempts to use FU when none available
system.switch_cpus0.iq.fu_full::InstPrefetch            0      0.00%    100.00% # attempts to use FU when none available
system.switch_cpus0.iq.int_alu_accesses     232246997                       # Number of integer alu accesses
system.switch_cpus0.iq.int_inst_queue_reads    749323897                       # Number of integer instruction queue reads
system.switch_cpus0.iq.int_inst_queue_wakeup_accesses    227543283                       # Number of integer instruction queue wakeup accesses
system.switch_cpus0.iq.int_inst_queue_writes    228150085                       # Number of integer instruction queue writes
system.switch_cpus0.iq.iqInstsAdded         413427511                       # Number of instructions added to the IQ (excludes non-spec)
system.switch_cpus0.iq.iqInstsIssued        413176463                       # Number of instructions issued
system.switch_cpus0.iq.iqNonSpecInstsAdded            9                       # Number of non-speculative instructions added to the IQ
system.switch_cpus0.iq.iqSquashedInstsExamined       709761                       # Number of squashed instructions iterated over during squash; mainly for profiling
system.switch_cpus0.iq.iqSquashedInstsIssued        15087                       # Number of squashed instructions issued
system.switch_cpus0.iq.iqSquashedNonSpecRemoved            9                       # Number of squashed non-spec instructions that were removed
system.switch_cpus0.iq.iqSquashedOperandsExamined      1102900                       # Number of squashed operands that are examined and possibly removed from graph
system.switch_cpus0.iq.issued_per_cycle::samples    289455460                       # Number of insts issued each cycle
system.switch_cpus0.iq.issued_per_cycle::mean     1.427427                       # Number of insts issued each cycle
system.switch_cpus0.iq.issued_per_cycle::stdev     2.621253                       # Number of insts issued each cycle
system.switch_cpus0.iq.issued_per_cycle::underflows            0      0.00%      0.00% # Number of insts issued each cycle
system.switch_cpus0.iq.issued_per_cycle::0    211280165     72.99%     72.99% # Number of insts issued each cycle
system.switch_cpus0.iq.issued_per_cycle::1      5944066      2.05%     75.05% # Number of insts issued each cycle
system.switch_cpus0.iq.issued_per_cycle::2      6015776      2.08%     77.12% # Number of insts issued each cycle
system.switch_cpus0.iq.issued_per_cycle::3      6445144      2.23%     79.35% # Number of insts issued each cycle
system.switch_cpus0.iq.issued_per_cycle::4      9588977      3.31%     82.66% # Number of insts issued each cycle
system.switch_cpus0.iq.issued_per_cycle::5     10776141      3.72%     86.39% # Number of insts issued each cycle
system.switch_cpus0.iq.issued_per_cycle::6     10017986      3.46%     89.85% # Number of insts issued each cycle
system.switch_cpus0.iq.issued_per_cycle::7     11576756      4.00%     93.85% # Number of insts issued each cycle
system.switch_cpus0.iq.issued_per_cycle::8     17810449      6.15%    100.00% # Number of insts issued each cycle
system.switch_cpus0.iq.issued_per_cycle::overflows            0      0.00%    100.00% # Number of insts issued each cycle
system.switch_cpus0.iq.issued_per_cycle::min_value            0                       # Number of insts issued each cycle
system.switch_cpus0.iq.issued_per_cycle::max_value            8                       # Number of insts issued each cycle
system.switch_cpus0.iq.issued_per_cycle::total    289455460                       # Number of insts issued each cycle
system.switch_cpus0.iq.rate                  1.426911                       # Inst issue rate
system.switch_cpus0.iq.vec_alu_accesses             0                       # Number of vector alu accesses
system.switch_cpus0.iq.vec_inst_queue_reads            0                       # Number of vector instruction queue reads
system.switch_cpus0.iq.vec_inst_queue_wakeup_accesses            0                       # Number of vector instruction queue wakeup accesses
system.switch_cpus0.iq.vec_inst_queue_writes            0                       # Number of vector instruction queue writes
system.switch_cpus0.memDep0.conflictingLoads      1682707                       # Number of conflicting loads.
system.switch_cpus0.memDep0.conflictingStores      1403845                       # Number of conflicting stores.
system.switch_cpus0.memDep0.insertedLoads     69427812                       # Number of loads inserted to the mem dependence unit.
system.switch_cpus0.memDep0.insertedStores     27595293                       # Number of stores inserted to the mem dependence unit.
system.switch_cpus0.misc_regfile_reads      170970341                       # number of misc regfile reads
system.switch_cpus0.misc_regfile_writes             1                       # number of misc regfile writes
system.switch_cpus0.numCycles               289560005                       # number of cpu cycles simulated
system.switch_cpus0.numWorkItemsCompleted            0                       # number of work items this cpu completed
system.switch_cpus0.numWorkItemsStarted             0                       # number of work items this cpu started
system.switch_cpus0.timesIdled                    376                       # Number of times that the entire CPU went into an idle state and unscheduled itself
system.switch_cpus1.cc_regfile_reads        130716238                       # number of cc regfile reads
system.switch_cpus1.cc_regfile_writes        97931629                       # number of cc regfile writes
system.switch_cpus1.committedInsts          249999943                       # Number of Instructions Simulated
system.switch_cpus1.committedOps            412717577                       # Number of Ops (including micro ops) Simulated
system.switch_cpus1.cpi                      1.158240                       # CPI: Cycles Per Instruction
system.switch_cpus1.cpi_total                1.158240                       # CPI: Total CPI of All Threads
system.switch_cpus1.fp_regfile_reads        302027954                       # number of floating regfile reads
system.switch_cpus1.fp_regfile_writes       159570972                       # number of floating regfile writes
system.switch_cpus1.idleCycles                 114019                       # Total number of cycles that the CPU has spent unscheduled due to idling
system.switch_cpus1.iew.branchMispredicts        18988                       # Number of branch mispredicts detected at execute
system.switch_cpus1.iew.exec_branches        28475706                       # Number of branches executed
system.switch_cpus1.iew.exec_nop                    0                       # number of nop insts executed
system.switch_cpus1.iew.exec_rate            1.426714                       # Inst execution rate
system.switch_cpus1.iew.exec_refs            96921779                       # number of memory reference insts executed
system.switch_cpus1.iew.exec_stores          27538729                       # Number of stores executed
system.switch_cpus1.iew.exec_swp                    0                       # number of swp insts executed
system.switch_cpus1.iew.iewBlockCycles       60317629                       # Number of cycles IEW is blocking
system.switch_cpus1.iew.iewDispLoadInsts     69427561                       # Number of dispatched load instructions
system.switch_cpus1.iew.iewDispNonSpecInsts            3                       # Number of dispatched non-speculative instructions
system.switch_cpus1.iew.iewDispSquashedInsts          569                       # Number of squashed instructions skipped by dispatch
system.switch_cpus1.iew.iewDispStoreInsts     27595174                       # Number of dispatched store instructions
system.switch_cpus1.iew.iewDispatchedInsts    413426313                       # Number of instructions dispatched to IQ
system.switch_cpus1.iew.iewExecLoadInsts     69383050                       # Number of load instructions executed
system.switch_cpus1.iew.iewExecSquashedInsts        56049                       # Number of squashed instructions skipped in execute
system.switch_cpus1.iew.iewExecutedInsts    413119392                       # Number of executed instructions
system.switch_cpus1.iew.iewIQFullEvents        148902                       # Number of times the IQ has become full, causing a stall
system.switch_cpus1.iew.iewIdleCycles               0                       # Number of cycles IEW is idle
system.switch_cpus1.iew.iewLSQFullEvents     25780724                       # Number of times the LSQ has become full, causing a stall
system.switch_cpus1.iew.iewSquashCycles         20793                       # Number of cycles IEW is squashing
system.switch_cpus1.iew.iewUnblockCycles     26047033                       # Number of cycles IEW is unblocking
system.switch_cpus1.iew.memOrderViolationEvents         2267                       # Number of memory order violations
system.switch_cpus1.iew.predictedNotTakenIncorrect         6313                       # Number of branches that were predicted not taken incorrectly
system.switch_cpus1.iew.predictedTakenIncorrect        12675                       # Number of branches that were predicted taken incorrectly
system.switch_cpus1.iew.wb_consumers        507943840                       # num instructions consuming a value
system.switch_cpus1.iew.wb_count            413076947                       # cumulative count of insts written-back
system.switch_cpus1.iew.wb_fanout            0.602687                       # average fanout of values written-back
system.switch_cpus1.iew.wb_producers        306130977                       # num instructions producing a value
system.switch_cpus1.iew.wb_rate              1.426568                       # insts written-back per cycle
system.switch_cpus1.iew.wb_sent             413095740                       # cumulative count of insts sent to commit
system.switch_cpus1.int_regfile_reads       405480914                       # number of integer regfile reads
system.switch_cpus1.int_regfile_writes      190914705                       # number of integer regfile writes
system.switch_cpus1.ipc                      0.863379                       # IPC: Instructions Per Cycle
system.switch_cpus1.ipc_total                0.863379                       # IPC: Total IPC of All Threads
system.switch_cpus1.iq.FU_type_0::No_OpClass        11908      0.00%      0.00% # Type of FU issued
system.switch_cpus1.iq.FU_type_0::IntAlu    221793221     53.68%     53.68% # Type of FU issued
system.switch_cpus1.iq.FU_type_0::IntMult        17897      0.00%     53.69% # Type of FU issued
system.switch_cpus1.iq.FU_type_0::IntDiv            0      0.00%     53.69% # Type of FU issued
system.switch_cpus1.iq.FU_type_0::FloatAdd     12497644      3.02%     56.71% # Type of FU issued
system.switch_cpus1.iq.FU_type_0::FloatCmp            0      0.00%     56.71% # Type of FU issued
system.switch_cpus1.iq.FU_type_0::FloatCvt            0      0.00%     56.71% # Type of FU issued
system.switch_cpus1.iq.FU_type_0::FloatMult            0      0.00%     56.71% # Type of FU issued
system.switch_cpus1.iq.FU_type_0::FloatMultAcc            0      0.00%     56.71% # Type of FU issued
system.switch_cpus1.iq.FU_type_0::FloatDiv            0      0.00%     56.71% # Type of FU issued
system.switch_cpus1.iq.FU_type_0::FloatMisc            0      0.00%     56.71% # Type of FU issued
system.switch_cpus1.iq.FU_type_0::FloatSqrt            0      0.00%     56.71% # Type of FU issued
system.switch_cpus1.iq.FU_type_0::SimdAdd            0      0.00%     56.71% # Type of FU issued
system.switch_cpus1.iq.FU_type_0::SimdAddAcc            0      0.00%     56.71% # Type of FU issued
system.switch_cpus1.iq.FU_type_0::SimdAlu      8957111      2.17%     58.88% # Type of FU issued
system.switch_cpus1.iq.FU_type_0::SimdCmp            0      0.00%     58.88% # Type of FU issued
system.switch_cpus1.iq.FU_type_0::SimdCvt            0      0.00%     58.88% # Type of FU issued
system.switch_cpus1.iq.FU_type_0::SimdMisc      5331549      1.29%     60.17% # Type of FU issued
system.switch_cpus1.iq.FU_type_0::SimdMult            0      0.00%     60.17% # Type of FU issued
system.switch_cpus1.iq.FU_type_0::SimdMultAcc            0      0.00%     60.17% # Type of FU issued
system.switch_cpus1.iq.FU_type_0::SimdShift            0      0.00%     60.17% # Type of FU issued
system.switch_cpus1.iq.FU_type_0::SimdShiftAcc            0      0.00%     60.17% # Type of FU issued
system.switch_cpus1.iq.FU_type_0::SimdDiv            0      0.00%     60.17% # Type of FU issued
system.switch_cpus1.iq.FU_type_0::SimdSqrt            0      0.00%     60.17% # Type of FU issued
system.switch_cpus1.iq.FU_type_0::SimdFloatAdd     30064221      7.28%     67.45% # Type of FU issued
system.switch_cpus1.iq.FU_type_0::SimdFloatAlu            0      0.00%     67.45% # Type of FU issued
system.switch_cpus1.iq.FU_type_0::SimdFloatCmp       376832      0.09%     67.54% # Type of FU issued
system.switch_cpus1.iq.FU_type_0::SimdFloatCvt      6594479      1.60%     69.13% # Type of FU issued
system.switch_cpus1.iq.FU_type_0::SimdFloatDiv      3034038      0.73%     69.87% # Type of FU issued
system.switch_cpus1.iq.FU_type_0::SimdFloatMisc            0      0.00%     69.87% # Type of FU issued
system.switch_cpus1.iq.FU_type_0::SimdFloatMult     27037121      6.54%     76.41% # Type of FU issued
system.switch_cpus1.iq.FU_type_0::SimdFloatMultAcc            0      0.00%     76.41% # Type of FU issued
system.switch_cpus1.iq.FU_type_0::SimdFloatSqrt       506044      0.12%     76.53% # Type of FU issued
system.switch_cpus1.iq.FU_type_0::SimdReduceAdd            0      0.00%     76.53% # Type of FU issued
system.switch_cpus1.iq.FU_type_0::SimdReduceAlu            0      0.00%     76.53% # Type of FU issued
system.switch_cpus1.iq.FU_type_0::SimdReduceCmp            0      0.00%     76.53% # Type of FU issued
system.switch_cpus1.iq.FU_type_0::SimdFloatReduceAdd            0      0.00%     76.53% # Type of FU issued
system.switch_cpus1.iq.FU_type_0::SimdFloatReduceCmp            0      0.00%     76.53% # Type of FU issued
[...]
system.switch_cpus3.commit.numCommittedDist::0    217444553     75.15%     75.15% # Number of insts commited each cycle
system.switch_cpus3.commit.numCommittedDist::1     11966011      4.14%     79.28% # Number of insts commited each cycle
system.switch_cpus3.commit.numCommittedDist::2      4550737      1.57%     80.86% # Number of insts commited each cycle
system.switch_cpus3.commit.numCommittedDist::3      5273873      1.82%     82.68% # Number of insts commited each cycle
system.switch_cpus3.commit.numCommittedDist::4      3251418      1.12%     83.80% # Number of insts commited each cycle
system.switch_cpus3.commit.numCommittedDist::5      2156076      0.75%     84.55% # Number of insts commited each cycle
system.switch_cpus3.commit.numCommittedDist::6      1649882      0.57%     85.12% # Number of insts commited each cycle
system.switch_cpus3.commit.numCommittedDist::7      2401173      0.83%     85.95% # Number of insts commited each cycle
system.switch_cpus3.commit.numCommittedDist::8     40660157     14.05%    100.00% # Number of insts commited each cycle
system.switch_cpus3.commit.numCommittedDist::overflows            0      0.00%    100.00% # Number of insts commited each cycle
system.switch_cpus3.commit.numCommittedDist::min_value            0                       # Number of insts commited each cycle
system.switch_cpus3.commit.numCommittedDist::max_value            8                       # Number of insts commited each cycle
system.switch_cpus3.commit.numCommittedDist::total    289353880                       # Number of insts commited each cycle
system.switch_cpus3.commit.instsCommitted    249967816                       # Number of instructions committed
system.switch_cpus3.commit.opsCommitted     412663915                       # Number of ops (including micro ops) committed
system.switch_cpus3.commit.memRefs           96722647                       # Number of memory references committed
system.switch_cpus3.commit.loads             69237062                       # Number of loads committed
system.switch_cpus3.commit.amos                     0                       # Number of atomic instructions committed
system.switch_cpus3.commit.membars                  0                       # Number of memory barriers committed
system.switch_cpus3.commit.branches          28457711                       # Number of branches committed
system.switch_cpus3.commit.vector                   0                       # Number of committed Vector instructions.
system.switch_cpus3.commit.floating         185421392                       # Number of committed floating point instructions.
system.switch_cpus3.commit.integer          289134113                       # Number of committed integer instructions.
system.switch_cpus3.commit.functionCalls      2180660                       # Number of function calls committed.
system.switch_cpus3.commit.committedInstType_0::No_OpClass        11422      0.00%      0.00% # Class of committed instruction
system.switch_cpus3.commit.committedInstType_0::IntAlu    221555569     53.69%     53.69% # Class of committed instruction
system.switch_cpus3.commit.committedInstType_0::IntMult        17849      0.00%     53.70% # Class of committed instruction
system.switch_cpus3.commit.committedInstType_0::IntDiv            0      0.00%     53.70% # Class of committed instruction
system.switch_cpus3.commit.committedInstType_0::FloatAdd     12494619      3.03%     56.72% # Class of committed instruction
system.switch_cpus3.commit.committedInstType_0::FloatCmp            0      0.00%     56.72% # Class of committed instruction
system.switch_cpus3.commit.committedInstType_0::FloatCvt            0      0.00%     56.72% # Class of committed instruction
system.switch_cpus3.commit.committedInstType_0::FloatMult            0      0.00%     56.72% # Class of committed instruction
system.switch_cpus3.commit.committedInstType_0::FloatMultAcc            0      0.00%     56.72% # Class of committed instruction
system.switch_cpus3.commit.committedInstType_0::FloatDiv            0      0.00%     56.72% # Class of committed instruction
system.switch_cpus3.commit.committedInstType_0::FloatMisc            0      0.00%     56.72% # Class of committed instruction
system.switch_cpus3.commit.committedInstType_0::FloatSqrt            0      0.00%     56.72% # Class of committed instruction
system.switch_cpus3.commit.committedInstType_0::SimdAdd            0      0.00%     56.72% # Class of committed instruction
system.switch_cpus3.commit.committedInstType_0::SimdAddAcc            0      0.00%     56.72% # Class of committed instruction
system.switch_cpus3.commit.committedInstType_0::SimdAlu      8950340      2.17%     58.89% # Class of committed instruction
system.switch_cpus3.commit.committedInstType_0::SimdCmp            0      0.00%     58.89% # Class of committed instruction
system.switch_cpus3.commit.committedInstType_0::SimdCvt            0      0.00%     58.89% # Class of committed instruction
system.switch_cpus3.commit.committedInstType_0::SimdMisc      5330363      1.29%     60.18% # Class of committed instruction
system.switch_cpus3.commit.committedInstType_0::SimdMult            0      0.00%     60.18% # Class of committed instruction
system.switch_cpus3.commit.committedInstType_0::SimdMultAcc            0      0.00%     60.18% # Class of committed instruction
system.switch_cpus3.commit.committedInstType_0::SimdShift            0      0.00%     60.18% # Class of committed instruction
system.switch_cpus3.commit.committedInstType_0::SimdShiftAcc            0      0.00%     60.18% # Class of committed instruction
system.switch_cpus3.commit.committedInstType_0::SimdDiv            0      0.00%     60.18% # Class of committed instruction
system.switch_cpus3.commit.committedInstType_0::SimdSqrt            0      0.00%     60.18% # Class of committed instruction
system.switch_cpus3.commit.committedInstType_0::SimdFloatAdd     30053502      7.28%     67.47% # Class of committed instruction
system.switch_cpus3.commit.committedInstType_0::SimdFloatAlu            0      0.00%     67.47% # Class of committed instruction
system.switch_cpus3.commit.committedInstType_0::SimdFloatCmp       376832      0.09%     67.56% # Class of committed instruction
system.switch_cpus3.commit.committedInstType_0::SimdFloatCvt      6586520      1.60%     69.15% # Class of committed instruction
system.switch_cpus3.commit.committedInstType_0::SimdFloatDiv      3033997      0.74%     69.89% # Class of committed instruction
system.switch_cpus3.commit.committedInstType_0::SimdFloatMisc            0      0.00%     69.89% # Class of committed instruction
system.switch_cpus3.commit.committedInstType_0::SimdFloatMult     27024247      6.55%     76.44% # Class of committed instruction
system.switch_cpus3.commit.committedInstType_0::SimdFloatMultAcc            0      0.00%     76.44% # Class of committed instruction
system.switch_cpus3.commit.committedInstType_0::SimdFloatSqrt       506008      0.12%     76.56% # Class of committed instruction
system.switch_cpus3.commit.committedInstType_0::SimdReduceAdd            0      0.00%     76.56% # Class of committed instruction
system.switch_cpus3.commit.committedInstType_0::SimdReduceAlu            0      0.00%     76.56% # Class of committed instruction
system.switch_cpus3.commit.committedInstType_0::SimdReduceCmp            0      0.00%     76.56% # Class of committed instruction
system.switch_cpus3.commit.committedInstType_0::SimdFloatReduceAdd            0      0.00%     76.56% # Class of committed instruction
system.switch_cpus3.commit.committedInstType_0::SimdFloatReduceCmp            0      0.00%     76.56% # Class of committed instruction
system.switch_cpus3.commit.committedInstType_0::SimdAes            0      0.00%     76.56% # Class of committed instruction
system.switch_cpus3.commit.committedInstType_0::SimdAesMix            0      0.00%     76.56% # Class of committed instruction
system.switch_cpus3.commit.committedInstType_0::SimdSha1Hash            0      0.00%     76.56% # Class of committed instruction
system.switch_cpus3.commit.committedInstType_0::SimdSha1Hash2            0      0.00%     76.56% # Class of committed instruction
system.switch_cpus3.commit.committedInstType_0::SimdSha256Hash            0      0.00%     76.56% # Class of committed instruction
system.switch_cpus3.commit.committedInstType_0::SimdSha256Hash2            0      0.00%     76.56% # Class of committed instruction
system.switch_cpus3.commit.committedInstType_0::SimdShaSigma2            0      0.00%     76.56% # Class of committed instruction
system.switch_cpus3.commit.committedInstType_0::SimdShaSigma3            0      0.00%     76.56% # Class of committed instruction
system.switch_cpus3.commit.committedInstType_0::SimdPredAlu            0      0.00%     76.56% # Class of committed instruction
system.switch_cpus3.commit.committedInstType_0::MemRead     26694744      6.47%     83.03% # Class of committed instruction
system.switch_cpus3.commit.committedInstType_0::MemWrite     13451078      3.26%     86.29% # Class of committed instruction
system.switch_cpus3.commit.committedInstType_0::FloatMemRead     42542318     10.31%     96.60% # Class of committed instruction
system.switch_cpus3.commit.committedInstType_0::FloatMemWrite     14034507      3.40%    100.00% # Class of committed instruction
system.switch_cpus3.commit.committedInstType_0::IprAccess            0      0.00%    100.00% # Class of committed instruction
system.switch_cpus3.commit.committedInstType_0::InstPrefetch            0      0.00%    100.00% # Class of committed instruction
system.switch_cpus3.commit.committedInstType_0::total    412663915                       # Class of committed instruction
system.switch_cpus3.commit.commitEligibleSamples     40660157                       # number cycles where commit BW limit reached
system.switch_cpus3.decode.idleCycles         4133002                       # Number of cycles decode is idle
system.switch_cpus3.decode.blockedCycles    225513786                       # Number of cycles decode is blocked
system.switch_cpus3.decode.runCycles         54246762                       # Number of cycles decode is running
system.switch_cpus3.decode.unblockCycles      5537985                       # Number of cycles decode is unblocking
system.switch_cpus3.decode.squashCycles         20766                       # Number of cycles decode is squashing
system.switch_cpus3.decode.branchResolved      9250525                       # Number of times decode resolved a  branch
system.switch_cpus3.decode.branchMispred          129                       # Number of times decode detected a branch misprediction
system.switch_cpus3.decode.decodedInsts     413671549                       # Number of instructions handled by decode
system.switch_cpus3.decode.squashedInsts          657                       # Number of squashed instructions handled by decode
system.switch_cpus3.dtb.rdAccesses           69372645                       # TLB accesses on read requests
system.switch_cpus3.dtb.wrAccesses           27535058                       # TLB accesses on write requests
system.switch_cpus3.dtb.rdMisses              1092131                       # TLB misses on read requests
system.switch_cpus3.dtb.wrMisses                14184                       # TLB misses on write requests
system.switch_cpus3.dtb.walker.power_state.pwrStateResidencyTicks::UNDEFINED 15747680569320                       # Cumulative time (in ticks) in various power states
system.switch_cpus3.fetch.icacheStallCycles        90944                       # Number of cycles fetch is stalled on an Icache miss
system.switch_cpus3.fetch.insts             250934061                       # Number of instructions fetch has processed
system.switch_cpus3.fetch.branches           28542353                       # Number of branches that fetch encountered
system.switch_cpus3.fetch.predictedBranches     13750627                       # Number of branches that fetch has predicted taken
system.switch_cpus3.fetch.cycles            289340451                       # Number of cycles fetch has run and was not squashing or blocked
system.switch_cpus3.fetch.squashCycles          41786                       # Number of cycles fetch has spent squashing
system.switch_cpus3.fetch.miscStallCycles            3                       # Number of cycles fetch has spent waiting on interrupts,or bad addresses, or out of MSHRs
system.switch_cpus3.fetch.pendingTrapStallCycles           21                       # Number of stall cycles due to pending traps
system.switch_cpus3.fetch.cacheLines         30569450                       # Number of cache lines fetched
system.switch_cpus3.fetch.icacheSquashes          222                       # Number of outstanding Icache misses that were squashed
system.switch_cpus3.fetch.nisnDist::samples    289452312                       # Number of instructions fetched each cycle (Total)
system.switch_cpus3.fetch.nisnDist::mean     1.430520                       # Number of instructions fetched each cycle (Total)
system.switch_cpus3.fetch.nisnDist::stdev     2.877264                       # Number of instructions fetched each cycle (Total)
system.switch_cpus3.fetch.nisnDist::underflows            0      0.00%      0.00% # Number of instructions fetched each cycle (Total)
system.switch_cpus3.fetch.nisnDist::0       222750911     76.96%     76.96% # Number of instructions fetched each cycle (Total)
system.switch_cpus3.fetch.nisnDist::1         5815028      2.01%     78.96% # Number of instructions fetched each cycle (Total)
system.switch_cpus3.fetch.nisnDist::2         2614044      0.90%     79.87% # Number of instructions fetched each cycle (Total)
system.switch_cpus3.fetch.nisnDist::3         6773059      2.34%     82.21% # Number of instructions fetched each cycle (Total)
system.switch_cpus3.fetch.nisnDist::4         2483488      0.86%     83.07% # Number of instructions fetched each cycle (Total)
system.switch_cpus3.fetch.nisnDist::5         3031369      1.05%     84.11% # Number of instructions fetched each cycle (Total)
system.switch_cpus3.fetch.nisnDist::6         3385017      1.17%     85.28% # Number of instructions fetched each cycle (Total)
system.switch_cpus3.fetch.nisnDist::7         3491001      1.21%     86.49% # Number of instructions fetched each cycle (Total)
system.switch_cpus3.fetch.nisnDist::8        39108395     13.51%    100.00% # Number of instructions fetched each cycle (Total)
system.switch_cpus3.fetch.nisnDist::overflows            0      0.00%    100.00% # Number of instructions fetched each cycle (Total)
system.switch_cpus3.fetch.nisnDist::min_value            0                       # Number of instructions fetched each cycle (Total)
system.switch_cpus3.fetch.nisnDist::max_value            8                       # Number of instructions fetched each cycle (Total)
system.switch_cpus3.fetch.nisnDist::total    289452312                       # Number of instructions fetched each cycle (Total)
system.switch_cpus3.fetch.branchRate         0.098571                       # Number of branch fetches per cycle
system.switch_cpus3.fetch.rate               0.866605                       # Number of inst fetches per cycle
system.switch_cpus3.itb.rdAccesses                  0                       # TLB accesses on read requests
system.switch_cpus3.itb.wrAccesses           30569454                       # TLB accesses on write requests
system.switch_cpus3.itb.rdMisses                    0                       # TLB misses on read requests
system.switch_cpus3.itb.wrMisses                   29                       # TLB misses on write requests
system.switch_cpus3.itb.walker.power_state.pwrStateResidencyTicks::UNDEFINED 15747680569320                       # Cumulative time (in ticks) in various power states
system.switch_cpus3.lsq0.forwLoads            4326528                       # Number of loads that had data forwarded from stores
system.switch_cpus3.lsq0.squashedLoads         180425                       # Number of loads squashed
system.switch_cpus3.lsq0.ignoredResponses          143                       # Number of memory responses ignored because the instruction is squashed
system.switch_cpus3.lsq0.memOrderViolation         2246                       # Number of memory ordering violations
system.switch_cpus3.lsq0.squashedStores        106057                       # Number of stores squashed
system.switch_cpus3.lsq0.rescheduledLoads            1                       # Number of loads that were rescheduled
system.switch_cpus3.lsq0.blockedByCache            37                       # Number of times an access to memory failed due to the cache being blocked
system.switch_cpus3.power_state.pwrStateResidencyTicks::OFF  96423491988                       # Cumulative time (in ticks) in various power states
system.switch_cpus3.rename.squashCycles         20766                       # Number of cycles rename is squashing
system.switch_cpus3.rename.idleCycles         6400422                       # Number of cycles rename is idle
system.switch_cpus3.rename.blockCycles       90432027                       # Number of cycles rename is blocking
system.switch_cpus3.rename.serializeStallCycles            0                       # count of cycles rename stalledfor serializing inst
system.switch_cpus3.rename.runCycles         57418293                       # Number of cycles rename is running
system.switch_cpus3.rename.unblockCycles    135180793                       # Number of cycles rename is unblocking
system.switch_cpus3.rename.renamedInsts     413544044                       # Number of instructions processed by rename
system.switch_cpus3.rename.ROBFullEvents       135422                       # Number of times rename has blocked due to ROB full
system.switch_cpus3.rename.IQFullEvents       7330273                       # Number of times rename has blocked due to IQ full
system.switch_cpus3.rename.LQFullEvents      32381815                       # Number of times rename has blocked due to LQ full
system.switch_cpus3.rename.SQFullEvents      97859050                       # Number of times rename has blocked due to SQ full
system.switch_cpus3.rename.renamedOperands    448864880                       # Number of destination operands rename has renamed
system.switch_cpus3.rename.lookups         1010516476                       # Number of register rename lookups that rename has made
system.switch_cpus3.rename.intLookups       406028000                       # Number of integer rename lookups
system.switch_cpus3.rename.fpLookups        302404702                       # Number of floating rename lookups
system.switch_cpus3.rename.committedMaps    447968428                       # Number of HB maps that are committed
system.switch_cpus3.rename.undoneMaps          896410                       # Number of HB maps that are undone due to squashing
system.switch_cpus3.rename.serializing              0                       # count of serializing insts renamed
system.switch_cpus3.rename.tempSerializing            0                       # count of temporary serializing insts renamed
system.switch_cpus3.rename.skidInsts         27903418                       # count of insts added to the skid buffer
system.switch_cpus3.rob.reads               662067332                       # The number of ROB reads
system.switch_cpus3.rob.writes              826845815                       # The number of ROB writes
system.switch_cpus3.thread0.numInsts        249967816                       # Number of Instructions committed
system.switch_cpus3.thread0.numOps          412663915                       # Number of Ops committed
system.switch_cpus3.thread0.numMemRefs              0                       # Number of Memory References
system.voltage_domain.voltage                       1                       # Voltage in Volts

---------- End Simulation Statistics   ----------
