Command line:
./runscript_pride.sh mix12 AE.BASELINE.4C 4 2017
Global frequency set at 1000000000000 ticks per second
DRAM config: RowsPerBank: 65536, BanksPerRank: 32, RanksPerChannel: 1
warn: Sockets disabled, not accepting gdb connections
warn: CoherentXBar system.cpu0.mmucache.mmubus has no snooping ports attached!
warn: CoherentXBar system.cpu1.mmucache.mmubus has no snooping ports attached!
warn: CoherentXBar system.cpu2.mmucache.mmubus has no snooping ports attached!
warn: CoherentXBar system.cpu3.mmucache.mmubus has no snooping ports attached!
warn: Checkpoints for file descriptors currently do not work.
warn: Checkpoints for file descriptors currently do not work.
warn: Checkpoints for file descriptors currently do not work.
warn: Checkpoints for file descriptors currently do not work.
gem5 Simulator System.  http://gem5.org
gem5 is copyrighted software; use the --copyright option for details.

gem5 version 20.1.0.5
gem5 compiled Jul 12 2024 12:42:38
gem5 started Jul 31 2024 03:21:19
gem5 executing on a07dda8b130c, pid 225940
command line: /home/user/PrIDE/performance/gem5/build/X86/gem5.opt --outdir=/home/user/PrIDE/performance/gem5/stats/pride_multiprogram_16GBmem_250Mn.SPEC2017.C4/AE.BASELINE.4C/mix12 /home/user/PrIDE/performance/gem5/configs/example/se_rq_spec_config_multicore.py --redirects /lib64=/home/utils/gcc-6.2.0/lib64 --benchmark=mix12 --benchmark_stdout=/home/user/PrIDE/performance/gem5/stats/pride_multiprogram_16GBmem_250Mn.SPEC2017.C4/AE.BASELINE.4C/mix12/mix12.out --benchmark_stderr=/home/user/PrIDE/performance/gem5/stats/pride_multiprogram_16GBmem_250Mn.SPEC2017.C4/AE.BASELINE.4C/mix12/mix12.err --spec-version=2017 --num-cpus=4 --mem-size=16GB --mem-type=DDR5_2400_32x4 --mem-ranks=1 --mem-channels=1 --checkpoint-dir=/home/user/PrIDE/performance/gem5/cpts-DDR5/multiprogram_16GBmem_25Bn.SPEC2017.C4/mix12-1-ref-x86 --checkpoint-restore=25000000000 --at-instruction --cpu-type DerivO3CPU --caches --l2cache --l1d_size=32kB --l1i_size=32kB --l2_size=256kB --l3_size=4MB --l1d_assoc=8 --l1i_assoc=8 --l2_assoc=16 --l3_assoc=16 --cpu-clock=3GHz --sys-clock=3GHz --maxinsts=250000000 --prog-interval=300Hz

info: Standard input is not a terminal, disabling listeners.
Benchmark- 0   roms
Selected benchmark
--> roms
CMD: ['/opt/spec2017/benchspec/CPU/554.roms_r/run/run_base_refrate_gem5_se-m64.0000/roms_r_base.gem5_se-m64']
CWD: /opt/spec2017/benchspec/CPU/554.roms_r/run/run_base_refrate_gem5_se-m64.0000/
Process stdout file: /home/user/PrIDE/performance/gem5/stats/pride_multiprogram_16GBmem_250Mn.SPEC2017.C4/AE.BASELINE.4C/mix12/mix12.out_0
Process stderr file: /home/user/PrIDE/performance/gem5/stats/pride_multiprogram_16GBmem_250Mn.SPEC2017.C4/AE.BASELINE.4C/mix12/mix12.err_0
Benchmark- 1   mcf
Selected benchmark
--> mcf
CMD: ['/opt/spec2017/benchspec/CPU/505.mcf_r/run/run_base_refrate_gem5_se-m64.0000/mcf_r_base.gem5_se-m64', '/opt/spec2017/benchspec/CPU/505.mcf_r/run/run_base_refrate_gem5_se-m64.0000/inp.in']
CWD: /opt/spec2017/benchspec/CPU/505.mcf_r/run/run_base_refrate_gem5_se-m64.0000/
Process stdout file: /home/user/PrIDE/performance/gem5/stats/pride_multiprogram_16GBmem_250Mn.SPEC2017.C4/AE.BASELINE.4C/mix12/mix12.out_1
Process stderr file: /home/user/PrIDE/performance/gem5/stats/pride_multiprogram_16GBmem_250Mn.SPEC2017.C4/AE.BASELINE.4C/mix12/mix12.err_1
Benchmark- 2   imagick
Selected benchmark
--> imagick
CMD: ['/opt/spec2017/benchspec/CPU/538.imagick_r/run/run_base_refrate_gem5_se-m64.0000/imagick_r_base.gem5_se-m64', '-limit', 'disk', '0', '/opt/spec2017/benchspec/CPU/538.imagick_r/run/run_base_refrate_gem5_se-m64.0000/refrate_input.tga', '-edge', '41', '-resample', '181%', '-emboss', '31', '-colorspace', 'YUV', '-mean-shift', '19x19+15%', '-resize', '30%', '/opt/spec2017/benchspec/CPU/538.imagick_r/run/run_base_refrate_gem5_se-m64.0000/refrate_output.tga']
CWD: /opt/spec2017/benchspec/CPU/538.imagick_r/run/run_base_refrate_gem5_se-m64.0000/
Process stdout file: /home/user/PrIDE/performance/gem5/stats/pride_multiprogram_16GBmem_250Mn.SPEC2017.C4/AE.BASELINE.4C/mix12/mix12.out_2
Process stderr file: /home/user/PrIDE/performance/gem5/stats/pride_multiprogram_16GBmem_250Mn.SPEC2017.C4/AE.BASELINE.4C/mix12/mix12.err_2
Benchmark- 3   blender
Selected benchmark
--> blender
CMD: ['/opt/spec2017/benchspec/CPU/526.blender_r/run/run_base_refrate_gem5_se-m64.0000/blender_r_base.gem5_se-m64', '/opt/spec2017/benchspec/CPU/526.blender_r/run/run_base_refrate_gem5_se-m64.0000/sh3_no_char.blend', '--render-output', 'sh3_no_char_', '--threads', '1', '-b', '-F', 'RAWTGA', '-s', '849', '-e', '849', '-a']
CWD: /opt/spec2017/benchspec/CPU/526.blender_r/run/run_base_refrate_gem5_se-m64.0000/
Process stdout file: /home/user/PrIDE/performance/gem5/stats/pride_multiprogram_16GBmem_250Mn.SPEC2017.C4/AE.BASELINE.4C/mix12/mix12.out_3
Process stderr file: /home/user/PrIDE/performance/gem5/stats/pride_multiprogram_16GBmem_250Mn.SPEC2017.C4/AE.BASELINE.4C/mix12/mix12.err_3
Workload-0: 
['/opt/spec2017/benchspec/CPU/554.roms_r/run/run_base_refrate_gem5_se-m64.0000/roms_r_base.gem5_se-m64']
Workload-1: 
['/opt/spec2017/benchspec/CPU/505.mcf_r/run/run_base_refrate_gem5_se-m64.0000/mcf_r_base.gem5_se-m64', '/opt/spec2017/benchspec/CPU/505.mcf_r/run/run_base_refrate_gem5_se-m64.0000/inp.in']
Workload-2: 
['/opt/spec2017/benchspec/CPU/538.imagick_r/run/run_base_refrate_gem5_se-m64.0000/imagick_r_base.gem5_se-m64', '-limit', 'disk', '0', '/opt/spec2017/benchspec/CPU/538.imagick_r/run/run_base_refrate_gem5_se-m64.0000/refrate_input.tga', '-edge', '41', '-resample', '181%', '-emboss', '31', '-colorspace', 'YUV', '-mean-shift', '19x19+15%', '-resize', '30%', '/opt/spec2017/benchspec/CPU/538.imagick_r/run/run_base_refrate_gem5_se-m64.0000/refrate_output.tga']
Workload-3: 
['/opt/spec2017/benchspec/CPU/526.blender_r/run/run_base_refrate_gem5_se-m64.0000/blender_r_base.gem5_se-m64', '/opt/spec2017/benchspec/CPU/526.blender_r/run/run_base_refrate_gem5_se-m64.0000/sh3_no_char.blend', '--render-output', 'sh3_no_char_', '--threads', '1', '-b', '-F', 'RAWTGA', '-s', '849', '-e', '849', '-a']
defense_enable:  False  detector:  MG  mitigation:  RRS  threshold:  800
mg_entries:  1700
rrs_tuples:  3400 rrs_swap_delay:  2740ns rit_acc_delay:  1.25ns
Switch at curTick count:10000
warn: membus.master is deprecated. `master` is now called `mem_side_ports`
warn: No dot file generated. Please install pydot to generate the dot file and pdf.
info: Entering event queue @ 15651257118624.  Starting simulation...
info: Entering event queue @ 15651257128624.  Starting simulation...
warn: PowerState: Already in the requested power state, request ignored
Switched CPUS @ tick 15651257128624
switching cpus
**** REAL SIMULATION ****
info: Entering event queue @ 15651257129280.  Starting simulation...
15654590451957: Event_285: system.switch_cpus3 progress event, total committed:37350314, progress insts committed: 37350314, IPC: 003.7313
15654590451957: Event_284: system.switch_cpus2 progress event, total committed:51597080, progress insts committed: 51597080, IPC: 05.15455
15654590451957: Event_283: system.switch_cpus1 progress event, total committed:10887730, progress insts committed: 10887730, IPC: 01.08768
15654590451957: Event_282: system.switch_cpus0 progress event, total committed:8871385, progress insts committed: 8871385, IPC: 0.886251
warn: MOVNTDQ: Ignoring non-temporal hint, modeling as cacheable!
15657923785290: Event_282: system.switch_cpus0 progress event, total committed:18038504, progress insts committed: 9167119, IPC: 0.915795
15657923785290: Event_283: system.switch_cpus1 progress event, total committed:22432870, progress insts committed: 11545140, IPC: 01.15336
15657923785290: Event_284: system.switch_cpus2 progress event, total committed:97922654, progress insts committed: 46325574, IPC: 04.62792
15657923785290: Event_285: system.switch_cpus3 progress event, total committed:75323854, progress insts committed: 37973540, IPC: 03.79356
15661257118623: Event_285: system.switch_cpus3 progress event, total committed:113175444, progress insts committed: 37851590, IPC: 03.78137
15661257118623: Event_284: system.switch_cpus2 progress event, total committed:122151373, progress insts committed: 24228719, IPC: 02.42045
15661257118623: Event_283: system.switch_cpus1 progress event, total committed:33726988, progress insts committed: 11294118, IPC: 01.12828
15661257118623: Event_282: system.switch_cpus0 progress event, total committed:26728314, progress insts committed: 8689810, IPC: 0.868112
15664590451956: Event_282: system.switch_cpus0 progress event, total committed:36652225, progress insts committed: 9923911, IPC: 0.991399
15664590451956: Event_283: system.switch_cpus1 progress event, total committed:43366537, progress insts committed: 9639549, IPC: 0.962991
15664590451956: Event_284: system.switch_cpus2 progress event, total committed:175031415, progress insts committed: 52880042, IPC: 05.28272
15664590451956: Event_285: system.switch_cpus3 progress event, total committed:148957244, progress insts committed: 35781800, IPC: 003.5746
15667923785289: Event_285: system.switch_cpus3 progress event, total committed:184366718, progress insts committed: 35409474, IPC: 03.53741
15667923785289: Event_284: system.switch_cpus2 progress event, total committed:227906316, progress insts committed: 52874901, IPC: 005.2822
15667923785289: Event_283: system.switch_cpus1 progress event, total committed:53207175, progress insts committed: 9840638, IPC: 00.98308
15667923785289: Event_282: system.switch_cpus0 progress event, total committed:45987272, progress insts committed: 9335047, IPC: 0.932571
15671257118622: Event_282: system.switch_cpus0 progress event, total committed:57258011, progress insts committed: 11270739, IPC: 01.12595
15671257118622: Event_283: system.switch_cpus1 progress event, total committed:63536392, progress insts committed: 10329217, IPC: 01.03189
15671257118622: Event_284: system.switch_cpus2 progress event, total committed:280805530, progress insts committed: 52899214, IPC: 05.28463
15671257118622: Event_285: system.switch_cpus3 progress event, total committed:220682175, progress insts committed: 36315457, IPC: 03.62791
15674590451955: Event_285: system.switch_cpus3 progress event, total committed:258958923, progress insts committed: 38276748, IPC: 03.82385
15674590451955: Event_284: system.switch_cpus2 progress event, total committed:333967820, progress insts committed: 53162290, IPC: 05.31091
15674590451955: Event_283: system.switch_cpus1 progress event, total committed:74696653, progress insts committed: 11160261, IPC: 01.11491
15674590451955: Event_282: system.switch_cpus0 progress event, total committed:81450984, progress insts committed: 24192973, IPC: 02.41688
15677923785288: Event_282: system.switch_cpus0 progress event, total committed:105743418, progress insts committed: 24292434, IPC: 02.42681
15677923785288: Event_283: system.switch_cpus1 progress event, total committed:86713263, progress insts committed: 12016610, IPC: 01.20046
15677923785288: Event_284: system.switch_cpus2 progress event, total committed:387119893, progress insts committed: 53152073, IPC: 05.30989
15677923785288: Event_285: system.switch_cpus3 progress event, total committed:297678155, progress insts committed: 38719232, IPC: 03.86805
Exiting @ tick 15680183676777 because a thread reached the max instruction count
