
---------- Begin Simulation Statistics ----------
final_tick                               15680170111356                       # Number of ticks from beginning of simulation (restored from checkpoints and never reset)
host_inst_rate                                 191242                       # Simulator instruction rate (inst/s)
host_mem_usage                               17387808                       # Number of bytes of host memory used
host_op_rate                                   327568                       # Simulator op (including micro ops) rate (op/s)
host_seconds                                  2939.16                       # Real time elapsed on the host
host_tick_rate                                9837162                       # Simulator tick rate (ticks/s)
sim_freq                                 1000000000000                       # Frequency of simulated ticks
sim_insts                                   562092175                       # Number of instructions simulated
sim_ops                                     962776250                       # Number of ops (including micro ops) simulated
sim_seconds                                  0.028913                       # Number of seconds simulated
sim_ticks                                 28913033691                       # Number of ticks simulated
system.cpu0.Branches                                1                       # Number of branches fetched
system.cpu0.committedInsts                         14                       # Number of instructions committed
system.cpu0.committedOps                           23                       # Number of ops (including micro ops) committed
system.cpu0.idle_fraction                           0                       # Percentage of idle cycles
system.cpu0.l2bus.snoop_filter.hit_multi_requests            2                       # Number of requests hitting in the snoop filter with multiple (>1) holders of the requested data.
system.cpu0.l2bus.snoop_filter.hit_multi_snoops            0                       # Number of snoops hitting in the snoop filter with multiple (>1) holders of the requested data.
system.cpu0.l2bus.snoop_filter.hit_single_requests      1375264                       # Number of requests hitting in the snoop filter with a single holder of the requested data.
system.cpu0.l2bus.snoop_filter.hit_single_snoops         1485                       # Number of snoops hitting in the snoop filter with a single holder of the requested data.
system.cpu0.l2bus.snoop_filter.tot_requests      2697473                       # Total number of requests made to the snoop filter.
system.cpu0.l2bus.snoop_filter.tot_snoops         1485                       # Total number of snoops made to the snoop filter.
system.cpu0.mmucache.mmubus.snoop_filter.hit_multi_requests            0                       # Number of requests hitting in the snoop filter with multiple (>1) holders of the requested data.
system.cpu0.mmucache.mmubus.snoop_filter.hit_multi_snoops            0                       # Number of snoops hitting in the snoop filter with multiple (>1) holders of the requested data.
system.cpu0.mmucache.mmubus.snoop_filter.hit_single_requests            0                       # Number of requests hitting in the snoop filter with a single holder of the requested data.
system.cpu0.mmucache.mmubus.snoop_filter.hit_single_snoops            0                       # Number of snoops hitting in the snoop filter with a single holder of the requested data.
system.cpu0.mmucache.mmubus.snoop_filter.tot_requests            0                       # Total number of requests made to the snoop filter.
system.cpu0.mmucache.mmubus.snoop_filter.tot_snoops            0                       # Total number of snoops made to the snoop filter.
system.cpu0.not_idle_fraction                       1                       # Percentage of non-idle cycles
system.cpu0.numCycles                              30                       # number of cpu cycles simulated
system.cpu0.numWorkItemsCompleted                   0                       # number of work items this cpu completed
system.cpu0.numWorkItemsStarted                     0                       # number of work items this cpu started
system.cpu0.num_busy_cycles                        30                       # Number of busy cycles
system.cpu0.num_cc_register_reads                   5                       # number of times the CC registers were read
system.cpu0.num_cc_register_writes                  8                       # number of times the CC registers were written
system.cpu0.num_conditional_control_insts            1                       # number of instructions that are conditional controls
system.cpu0.num_fp_alu_accesses                    12                       # Number of float alu accesses
system.cpu0.num_fp_insts                           12                       # number of float instructions
system.cpu0.num_fp_register_reads                  21                       # number of times the floating registers were read
system.cpu0.num_fp_register_writes                 11                       # number of times the floating registers were written
system.cpu0.num_func_calls                          0                       # number of times a function call or return occured
system.cpu0.num_idle_cycles                         0                       # Number of idle cycles
system.cpu0.num_int_alu_accesses                   16                       # Number of integer alu accesses
system.cpu0.num_int_insts                          16                       # number of integer instructions
system.cpu0.num_int_register_reads                 33                       # number of times the integer registers were read
system.cpu0.num_int_register_writes                10                       # number of times the integer registers were written
system.cpu0.num_load_insts                          6                       # Number of load instructions
system.cpu0.num_mem_refs                            7                       # number of memory refs
system.cpu0.num_store_insts                         1                       # Number of store instructions
system.cpu0.num_vec_alu_accesses                    0                       # Number of vector alu accesses
system.cpu0.num_vec_insts                           0                       # number of vector instructions
system.cpu0.num_vec_register_reads                  0                       # number of times the vector registers were read
system.cpu0.num_vec_register_writes                 0                       # number of times the vector registers were written
system.cpu0.op_class::No_OpClass                    0      0.00%      0.00% # Class of executed instruction
system.cpu0.op_class::IntAlu                       10     43.48%     43.48% # Class of executed instruction
system.cpu0.op_class::IntMult                       0      0.00%     43.48% # Class of executed instruction
system.cpu0.op_class::IntDiv                        0      0.00%     43.48% # Class of executed instruction
system.cpu0.op_class::FloatAdd                      0      0.00%     43.48% # Class of executed instruction
system.cpu0.op_class::FloatCmp                      0      0.00%     43.48% # Class of executed instruction
system.cpu0.op_class::FloatCvt                      0      0.00%     43.48% # Class of executed instruction
system.cpu0.op_class::FloatMult                     0      0.00%     43.48% # Class of executed instruction
system.cpu0.op_class::FloatMultAcc                  0      0.00%     43.48% # Class of executed instruction
system.cpu0.op_class::FloatDiv                      0      0.00%     43.48% # Class of executed instruction
system.cpu0.op_class::FloatMisc                     0      0.00%     43.48% # Class of executed instruction
system.cpu0.op_class::FloatSqrt                     0      0.00%     43.48% # Class of executed instruction
system.cpu0.op_class::SimdAdd                       0      0.00%     43.48% # Class of executed instruction
system.cpu0.op_class::SimdAddAcc                    0      0.00%     43.48% # Class of executed instruction
system.cpu0.op_class::SimdAlu                       0      0.00%     43.48% # Class of executed instruction
system.cpu0.op_class::SimdCmp                       0      0.00%     43.48% # Class of executed instruction
system.cpu0.op_class::SimdCvt                       0      0.00%     43.48% # Class of executed instruction
system.cpu0.op_class::SimdMisc                      0      0.00%     43.48% # Class of executed instruction
system.cpu0.op_class::SimdMult                      0      0.00%     43.48% # Class of executed instruction
system.cpu0.op_class::SimdMultAcc                   0      0.00%     43.48% # Class of executed instruction
system.cpu0.op_class::SimdShift                     0      0.00%     43.48% # Class of executed instruction
system.cpu0.op_class::SimdShiftAcc                  0      0.00%     43.48% # Class of executed instruction
system.cpu0.op_class::SimdDiv                       0      0.00%     43.48% # Class of executed instruction
system.cpu0.op_class::SimdSqrt                      0      0.00%     43.48% # Class of executed instruction
system.cpu0.op_class::SimdFloatAdd                  4     17.39%     60.87% # Class of executed instruction
system.cpu0.op_class::SimdFloatAlu                  0      0.00%     60.87% # Class of executed instruction
system.cpu0.op_class::SimdFloatCmp                  0      0.00%     60.87% # Class of executed instruction
system.cpu0.op_class::SimdFloatCvt                  0      0.00%     60.87% # Class of executed instruction
system.cpu0.op_class::SimdFloatDiv                  0      0.00%     60.87% # Class of executed instruction
system.cpu0.op_class::SimdFloatMisc                 0      0.00%     60.87% # Class of executed instruction
system.cpu0.op_class::SimdFloatMult                 2      8.70%     69.57% # Class of executed instruction
system.cpu0.op_class::SimdFloatMultAcc              0      0.00%     69.57% # Class of executed instruction
system.cpu0.op_class::SimdFloatSqrt                 0      0.00%     69.57% # Class of executed instruction
system.cpu0.op_class::SimdReduceAdd                 0      0.00%     69.57% # Class of executed instruction
system.cpu0.op_class::SimdReduceAlu                 0      0.00%     69.57% # Class of executed instruction
system.cpu0.op_class::SimdReduceCmp                 0      0.00%     69.57% # Class of executed instruction
system.cpu0.op_class::SimdFloatReduceAdd            0      0.00%     69.57% # Class of executed instruction
system.cpu0.op_class::SimdFloatReduceCmp            0      0.00%     69.57% # Class of executed instruction
system.cpu0.op_class::SimdAes                       0      0.00%     69.57% # Class of executed instruction
system.cpu0.op_class::SimdAesMix                    0      0.00%     69.57% # Class of executed instruction
system.cpu0.op_class::SimdSha1Hash                  0      0.00%     69.57% # Class of executed instruction
system.cpu0.op_class::SimdSha1Hash2                 0      0.00%     69.57% # Class of executed instruction
system.cpu0.op_class::SimdSha256Hash                0      0.00%     69.57% # Class of executed instruction
system.cpu0.op_class::SimdSha256Hash2               0      0.00%     69.57% # Class of executed instruction
system.cpu0.op_class::SimdShaSigma2                 0      0.00%     69.57% # Class of executed instruction
system.cpu0.op_class::SimdShaSigma3                 0      0.00%     69.57% # Class of executed instruction
system.cpu0.op_class::SimdPredAlu                   0      0.00%     69.57% # Class of executed instruction
system.cpu0.op_class::MemRead                       2      8.70%     78.26% # Class of executed instruction
system.cpu0.op_class::MemWrite                      0      0.00%     78.26% # Class of executed instruction
system.cpu0.op_class::FloatMemRead                  4     17.39%     95.65% # Class of executed instruction
system.cpu0.op_class::FloatMemWrite                 1      4.35%    100.00% # Class of executed instruction
system.cpu0.op_class::IprAccess                     0      0.00%    100.00% # Class of executed instruction
system.cpu0.op_class::InstPrefetch                  0      0.00%    100.00% # Class of executed instruction
system.cpu0.op_class::total                        23                       # Class of executed instruction
system.cpu0.workload.numSyscalls                    0                       # Number of system calls
system.cpu1.Branches                                3                       # Number of branches fetched
system.cpu1.committedInsts                         15                       # Number of instructions committed
system.cpu1.committedOps                           25                       # Number of ops (including micro ops) committed
system.cpu1.idle_fraction                           0                       # Percentage of idle cycles
system.cpu1.l2bus.snoop_filter.hit_multi_requests           53                       # Number of requests hitting in the snoop filter with multiple (>1) holders of the requested data.
system.cpu1.l2bus.snoop_filter.hit_multi_snoops            2                       # Number of snoops hitting in the snoop filter with multiple (>1) holders of the requested data.
system.cpu1.l2bus.snoop_filter.hit_single_requests      1861597                       # Number of requests hitting in the snoop filter with a single holder of the requested data.
system.cpu1.l2bus.snoop_filter.hit_single_snoops          239                       # Number of snoops hitting in the snoop filter with a single holder of the requested data.
system.cpu1.l2bus.snoop_filter.tot_requests      3710476                       # Total number of requests made to the snoop filter.
system.cpu1.l2bus.snoop_filter.tot_snoops          241                       # Total number of snoops made to the snoop filter.
system.cpu1.mmucache.mmubus.snoop_filter.hit_multi_requests            0                       # Number of requests hitting in the snoop filter with multiple (>1) holders of the requested data.
system.cpu1.mmucache.mmubus.snoop_filter.hit_multi_snoops            0                       # Number of snoops hitting in the snoop filter with multiple (>1) holders of the requested data.
system.cpu1.mmucache.mmubus.snoop_filter.hit_single_requests            0                       # Number of requests hitting in the snoop filter with a single holder of the requested data.
system.cpu1.mmucache.mmubus.snoop_filter.hit_single_snoops            0                       # Number of snoops hitting in the snoop filter with a single holder of the requested data.
system.cpu1.mmucache.mmubus.snoop_filter.tot_requests            0                       # Total number of requests made to the snoop filter.
system.cpu1.mmucache.mmubus.snoop_filter.tot_snoops            0                       # Total number of snoops made to the snoop filter.
system.cpu1.not_idle_fraction                       1                       # Percentage of non-idle cycles
system.cpu1.numCycles                              31                       # number of cpu cycles simulated
system.cpu1.numWorkItemsCompleted                   0                       # number of work items this cpu completed
system.cpu1.numWorkItemsStarted                     0                       # number of work items this cpu started
system.cpu1.num_busy_cycles                        31                       # Number of busy cycles
system.cpu1.num_cc_register_reads                  20                       # number of times the CC registers were read
system.cpu1.num_cc_register_writes                  6                       # number of times the CC registers were written
system.cpu1.num_conditional_control_insts            2                       # number of instructions that are conditional controls
system.cpu1.num_fp_alu_accesses                     0                       # Number of float alu accesses
system.cpu1.num_fp_insts                            0                       # number of float instructions
system.cpu1.num_fp_register_reads                   0                       # number of times the floating registers were read
system.cpu1.num_fp_register_writes                  0                       # number of times the floating registers were written
system.cpu1.num_func_calls                          1                       # number of times a function call or return occured
system.cpu1.num_idle_cycles                         0                       # Number of idle cycles
system.cpu1.num_int_alu_accesses                   25                       # Number of integer alu accesses
system.cpu1.num_int_insts                          25                       # number of integer instructions
system.cpu1.num_int_register_reads                 53                       # number of times the integer registers were read
system.cpu1.num_int_register_writes                21                       # number of times the integer registers were written
system.cpu1.num_load_insts                          5                       # Number of load instructions
system.cpu1.num_mem_refs                            6                       # number of memory refs
system.cpu1.num_store_insts                         1                       # Number of store instructions
system.cpu1.num_vec_alu_accesses                    0                       # Number of vector alu accesses
system.cpu1.num_vec_insts                           0                       # number of vector instructions
system.cpu1.num_vec_register_reads                  0                       # number of times the vector registers were read
system.cpu1.num_vec_register_writes                 0                       # number of times the vector registers were written
system.cpu1.op_class::No_OpClass                    0      0.00%      0.00% # Class of executed instruction
system.cpu1.op_class::IntAlu                       19     76.00%     76.00% # Class of executed instruction
system.cpu1.op_class::IntMult                       0      0.00%     76.00% # Class of executed instruction
system.cpu1.op_class::IntDiv                        0      0.00%     76.00% # Class of executed instruction
system.cpu1.op_class::FloatAdd                      0      0.00%     76.00% # Class of executed instruction
system.cpu1.op_class::FloatCmp                      0      0.00%     76.00% # Class of executed instruction
system.cpu1.op_class::FloatCvt                      0      0.00%     76.00% # Class of executed instruction
system.cpu1.op_class::FloatMult                     0      0.00%     76.00% # Class of executed instruction
system.cpu1.op_class::FloatMultAcc                  0      0.00%     76.00% # Class of executed instruction
system.cpu1.op_class::FloatDiv                      0      0.00%     76.00% # Class of executed instruction
system.cpu1.op_class::FloatMisc                     0      0.00%     76.00% # Class of executed instruction
system.cpu1.op_class::FloatSqrt                     0      0.00%     76.00% # Class of executed instruction
system.cpu1.op_class::SimdAdd                       0      0.00%     76.00% # Class of executed instruction
system.cpu1.op_class::SimdAddAcc                    0      0.00%     76.00% # Class of executed instruction
system.cpu1.op_class::SimdAlu                       0      0.00%     76.00% # Class of executed instruction
system.cpu1.op_class::SimdCmp                       0      0.00%     76.00% # Class of executed instruction
system.cpu1.op_class::SimdCvt                       0      0.00%     76.00% # Class of executed instruction
system.cpu1.op_class::SimdMisc                      0      0.00%     76.00% # Class of executed instruction
system.cpu1.op_class::SimdMult                      0      0.00%     76.00% # Class of executed instruction
system.cpu1.op_class::SimdMultAcc                   0      0.00%     76.00% # Class of executed instruction
system.cpu1.op_class::SimdShift                     0      0.00%     76.00% # Class of executed instruction
system.cpu1.op_class::SimdShiftAcc                  0      0.00%     76.00% # Class of executed instruction
system.cpu1.op_class::SimdDiv                       0      0.00%     76.00% # Class of executed instruction
system.cpu1.op_class::SimdSqrt                      0      0.00%     76.00% # Class of executed instruction
system.cpu1.op_class::SimdFloatAdd                  0      0.00%     76.00% # Class of executed instruction
system.cpu1.op_class::SimdFloatAlu                  0      0.00%     76.00% # Class of executed instruction
system.cpu1.op_class::SimdFloatCmp                  0      0.00%     76.00% # Class of executed instruction
system.cpu1.op_class::SimdFloatCvt                  0      0.00%     76.00% # Class of executed instruction
system.cpu1.op_class::SimdFloatDiv                  0      0.00%     76.00% # Class of executed instruction
system.cpu1.op_class::SimdFloatMisc                 0      0.00%     76.00% # Class of executed instruction
system.cpu1.op_class::SimdFloatMult                 0      0.00%     76.00% # Class of executed instruction
system.cpu1.op_class::SimdFloatMultAcc              0      0.00%     76.00% # Class of executed instruction
system.cpu1.op_class::SimdFloatSqrt                 0      0.00%     76.00% # Class of executed instruction
system.cpu1.op_class::SimdReduceAdd                 0      0.00%     76.00% # Class of executed instruction
system.cpu1.op_class::SimdReduceAlu                 0      0.00%     76.00% # Class of executed instruction
system.cpu1.op_class::SimdReduceCmp                 0      0.00%     76.00% # Class of executed instruction
system.cpu1.op_class::SimdFloatReduceAdd            0      0.00%     76.00% # Class of executed instruction
system.cpu1.op_class::SimdFloatReduceCmp            0      0.00%     76.00% # Class of executed instruction
system.cpu1.op_class::SimdAes                       0      0.00%     76.00% # Class of executed instruction
system.cpu1.op_class::SimdAesMix                    0      0.00%     76.00% # Class of executed instruction
system.cpu1.op_class::SimdSha1Hash                  0      0.00%     76.00% # Class of executed instruction
system.cpu1.op_class::SimdSha1Hash2                 0      0.00%     76.00% # Class of executed instruction
system.cpu1.op_class::SimdSha256Hash                0      0.00%     76.00% # Class of executed instruction
system.cpu1.op_class::SimdSha256Hash2               0      0.00%     76.00% # Class of executed instruction
system.cpu1.op_class::SimdShaSigma2                 0      0.00%     76.00% # Class of executed instruction
system.cpu1.op_class::SimdShaSigma3                 0      0.00%     76.00% # Class of executed instruction
system.cpu1.op_class::SimdPredAlu                   0      0.00%     76.00% # Class of executed instruction
system.cpu1.op_class::MemRead                       5     20.00%     96.00% # Class of executed instruction
system.cpu1.op_class::MemWrite                      1      4.00%    100.00% # Class of executed instruction
system.cpu1.op_class::FloatMemRead                  0      0.00%    100.00% # Class of executed instruction
system.cpu1.op_class::FloatMemWrite                 0      0.00%    100.00% # Class of executed instruction
system.cpu1.op_class::IprAccess                     0      0.00%    100.00% # Class of executed instruction
system.cpu1.op_class::InstPrefetch                  0      0.00%    100.00% # Class of executed instruction
system.cpu1.op_class::total                        25                       # Class of executed instruction
system.cpu1.workload.numSyscalls                    0                       # Number of system calls
system.cpu2.Branches                                1                       # Number of branches fetched
system.cpu2.committedInsts                         16                       # Number of instructions committed
system.cpu2.committedOps                           25                       # Number of ops (including micro ops) committed
system.cpu2.idle_fraction                           0                       # Percentage of idle cycles
system.cpu2.l2bus.snoop_filter.hit_multi_requests            3                       # Number of requests hitting in the snoop filter with multiple (>1) holders of the requested data.
system.cpu2.l2bus.snoop_filter.hit_multi_snoops            0                       # Number of snoops hitting in the snoop filter with multiple (>1) holders of the requested data.
system.cpu2.l2bus.snoop_filter.hit_single_requests      2529400                       # Number of requests hitting in the snoop filter with a single holder of the requested data.
system.cpu2.l2bus.snoop_filter.hit_single_snoops          211                       # Number of snoops hitting in the snoop filter with a single holder of the requested data.
system.cpu2.l2bus.snoop_filter.tot_requests      5059504                       # Total number of requests made to the snoop filter.
system.cpu2.l2bus.snoop_filter.tot_snoops          211                       # Total number of snoops made to the snoop filter.
system.cpu2.mmucache.mmubus.snoop_filter.hit_multi_requests            0                       # Number of requests hitting in the snoop filter with multiple (>1) holders of the requested data.
system.cpu2.mmucache.mmubus.snoop_filter.hit_multi_snoops            0                       # Number of snoops hitting in the snoop filter with multiple (>1) holders of the requested data.
system.cpu2.mmucache.mmubus.snoop_filter.hit_single_requests            0                       # Number of requests hitting in the snoop filter with a single holder of the requested data.
system.cpu2.mmucache.mmubus.snoop_filter.hit_single_snoops            0                       # Number of snoops hitting in the snoop filter with a single holder of the requested data.
system.cpu2.mmucache.mmubus.snoop_filter.tot_requests            0                       # Total number of requests made to the snoop filter.
system.cpu2.mmucache.mmubus.snoop_filter.tot_snoops            0                       # Total number of snoops made to the snoop filter.
system.cpu2.not_idle_fraction                       1                       # Percentage of non-idle cycles
system.cpu2.numCycles                              32                       # number of cpu cycles simulated
system.cpu2.numWorkItemsCompleted                   0                       # number of work items this cpu completed
system.cpu2.numWorkItemsStarted                     0                       # number of work items this cpu started
system.cpu2.num_busy_cycles                        32                       # Number of busy cycles
system.cpu2.num_cc_register_reads                   5                       # number of times the CC registers were read
system.cpu2.num_conditional_control_insts            1                       # number of instructions that are conditional controls
system.cpu2.num_fp_alu_accesses                    16                       # Number of float alu accesses
system.cpu2.num_fp_insts                           16                       # number of float instructions
system.cpu2.num_fp_register_reads                  36                       # number of times the floating registers were read
system.cpu2.num_fp_register_writes                 16                       # number of times the floating registers were written
system.cpu2.num_func_calls                          0                       # number of times a function call or return occured
system.cpu2.num_idle_cycles                         0                       # Number of idle cycles
system.cpu2.num_int_alu_accesses                   13                       # Number of integer alu accesses
system.cpu2.num_int_insts                          13                       # number of integer instructions
system.cpu2.num_int_register_reads                 23                       # number of times the integer registers were read
system.cpu2.num_int_register_writes                 8                       # number of times the integer registers were written
system.cpu2.num_load_insts                          3                       # Number of load instructions
system.cpu2.num_mem_refs                            3                       # number of memory refs
system.cpu2.num_store_insts                         0                       # Number of store instructions
system.cpu2.num_vec_alu_accesses                    0                       # Number of vector alu accesses
system.cpu2.num_vec_insts                           0                       # number of vector instructions
system.cpu2.num_vec_register_reads                  0                       # number of times the vector registers were read
system.cpu2.num_vec_register_writes                 0                       # number of times the vector registers were written
system.cpu2.op_class::No_OpClass                    0      0.00%      0.00% # Class of executed instruction
system.cpu2.op_class::IntAlu                        6     24.00%     24.00% # Class of executed instruction
system.cpu2.op_class::IntMult                       0      0.00%     24.00% # Class of executed instruction
system.cpu2.op_class::IntDiv                        0      0.00%     24.00% # Class of executed instruction
system.cpu2.op_class::FloatAdd                      0      0.00%     24.00% # Class of executed instruction
system.cpu2.op_class::FloatCmp                      0      0.00%     24.00% # Class of executed instruction
system.cpu2.op_class::FloatCvt                      0      0.00%     24.00% # Class of executed instruction
system.cpu2.op_class::FloatMult                     0      0.00%     24.00% # Class of executed instruction
system.cpu2.op_class::FloatMultAcc                  0      0.00%     24.00% # Class of executed instruction
system.cpu2.op_class::FloatDiv                      0      0.00%     24.00% # Class of executed instruction
system.cpu2.op_class::FloatMisc                     0      0.00%     24.00% # Class of executed instruction
system.cpu2.op_class::FloatSqrt                     0      0.00%     24.00% # Class of executed instruction
system.cpu2.op_class::SimdAdd                       0      0.00%     24.00% # Class of executed instruction
system.cpu2.op_class::SimdAddAcc                    0      0.00%     24.00% # Class of executed instruction
system.cpu2.op_class::SimdAlu                       0      0.00%     24.00% # Class of executed instruction
system.cpu2.op_class::SimdCmp                       0      0.00%     24.00% # Class of executed instruction
system.cpu2.op_class::SimdCvt                       0      0.00%     24.00% # Class of executed instruction
system.cpu2.op_class::SimdMisc                      4     16.00%     40.00% # Class of executed instruction
system.cpu2.op_class::SimdMult                      0      0.00%     40.00% # Class of executed instruction
system.cpu2.op_class::SimdMultAcc                   0      0.00%     40.00% # Class of executed instruction
system.cpu2.op_class::SimdShift                     0      0.00%     40.00% # Class of executed instruction
system.cpu2.op_class::SimdShiftAcc                  0      0.00%     40.00% # Class of executed instruction
system.cpu2.op_class::SimdDiv                       0      0.00%     40.00% # Class of executed instruction
system.cpu2.op_class::SimdSqrt                      0      0.00%     40.00% # Class of executed instruction
system.cpu2.op_class::SimdFloatAdd                  4     16.00%     56.00% # Class of executed instruction
system.cpu2.op_class::SimdFloatAlu                  0      0.00%     56.00% # Class of executed instruction
system.cpu2.op_class::SimdFloatCmp                  0      0.00%     56.00% # Class of executed instruction
system.cpu2.op_class::SimdFloatCvt                  4     16.00%     72.00% # Class of executed instruction
system.cpu2.op_class::SimdFloatDiv                  0      0.00%     72.00% # Class of executed instruction
system.cpu2.op_class::SimdFloatMisc                 0      0.00%     72.00% # Class of executed instruction
system.cpu2.op_class::SimdFloatMult                 4     16.00%     88.00% # Class of executed instruction
system.cpu2.op_class::SimdFloatMultAcc              0      0.00%     88.00% # Class of executed instruction
system.cpu2.op_class::SimdFloatSqrt                 0      0.00%     88.00% # Class of executed instruction
system.cpu2.op_class::SimdReduceAdd                 0      0.00%     88.00% # Class of executed instruction
system.cpu2.op_class::SimdReduceAlu                 0      0.00%     88.00% # Class of executed instruction
system.cpu2.op_class::SimdReduceCmp                 0      0.00%     88.00% # Class of executed instruction
system.cpu2.op_class::SimdFloatReduceAdd            0      0.00%     88.00% # Class of executed instruction
system.cpu2.op_class::SimdFloatReduceCmp            0      0.00%     88.00% # Class of executed instruction
system.cpu2.op_class::SimdAes                       0      0.00%     88.00% # Class of executed instruction
system.cpu2.op_class::SimdAesMix                    0      0.00%     88.00% # Class of executed instruction
system.cpu2.op_class::SimdSha1Hash                  0      0.00%     88.00% # Class of executed instruction
system.cpu2.op_class::SimdSha1Hash2                 0      0.00%     88.00% # Class of executed instruction
system.cpu2.op_class::SimdSha256Hash                0      0.00%     88.00% # Class of executed instruction
system.cpu2.op_class::SimdSha256Hash2               0      0.00%     88.00% # Class of executed instruction
system.cpu2.op_class::SimdShaSigma2                 0      0.00%     88.00% # Class of executed instruction
system.cpu2.op_class::SimdShaSigma3                 0      0.00%     88.00% # Class of executed instruction
system.cpu2.op_class::SimdPredAlu                   0      0.00%     88.00% # Class of executed instruction
system.cpu2.op_class::MemRead                       3     12.00%    100.00% # Class of executed instruction
system.cpu2.op_class::MemWrite                      0      0.00%    100.00% # Class of executed instruction
system.cpu2.op_class::FloatMemRead                  0      0.00%    100.00% # Class of executed instruction
system.cpu2.op_class::FloatMemWrite                 0      0.00%    100.00% # Class of executed instruction
system.cpu2.op_class::IprAccess                     0      0.00%    100.00% # Class of executed instruction
system.cpu2.op_class::InstPrefetch                  0      0.00%    100.00% # Class of executed instruction
system.cpu2.op_class::total                        25                       # Class of executed instruction
system.cpu2.workload.numSyscalls                    0                       # Number of system calls
system.cpu3.Branches                                1                       # Number of branches fetched
system.cpu3.committedInsts                         20                       # Number of instructions committed
system.cpu3.committedOps                           25                       # Number of ops (including micro ops) committed
system.cpu3.idle_fraction                           0                       # Percentage of idle cycles
system.cpu3.l2bus.snoop_filter.hit_multi_requests          220                       # Number of requests hitting in the snoop filter with multiple (>1) holders of the requested data.
system.cpu3.l2bus.snoop_filter.hit_multi_snoops            0                       # Number of snoops hitting in the snoop filter with multiple (>1) holders of the requested data.
system.cpu3.l2bus.snoop_filter.hit_single_requests       301202                       # Number of requests hitting in the snoop filter with a single holder of the requested data.
system.cpu3.l2bus.snoop_filter.hit_single_snoops          415                       # Number of snoops hitting in the snoop filter with a single holder of the requested data.
system.cpu3.l2bus.snoop_filter.tot_requests       603286                       # Total number of requests made to the snoop filter.
system.cpu3.l2bus.snoop_filter.tot_snoops          415                       # Total number of snoops made to the snoop filter.
system.cpu3.mmucache.mmubus.snoop_filter.hit_multi_requests            0                       # Number of requests hitting in the snoop filter with multiple (>1) holders of the requested data.
system.cpu3.mmucache.mmubus.snoop_filter.hit_multi_snoops            0                       # Number of snoops hitting in the snoop filter with multiple (>1) holders of the requested data.
system.cpu3.mmucache.mmubus.snoop_filter.hit_single_requests            0                       # Number of requests hitting in the snoop filter with a single holder of the requested data.
system.cpu3.mmucache.mmubus.snoop_filter.hit_single_snoops            0                       # Number of snoops hitting in the snoop filter with a single holder of the requested data.
system.cpu3.mmucache.mmubus.snoop_filter.tot_requests            0                       # Total number of requests made to the snoop filter.
system.cpu3.mmucache.mmubus.snoop_filter.tot_snoops            0                       # Total number of snoops made to the snoop filter.
system.cpu3.not_idle_fraction                       1                       # Percentage of non-idle cycles
system.cpu3.numCycles                              30                       # number of cpu cycles simulated
system.cpu3.numWorkItemsCompleted                   0                       # number of work items this cpu completed
system.cpu3.numWorkItemsStarted                     0                       # number of work items this cpu started
system.cpu3.num_busy_cycles                        30                       # Number of busy cycles
system.cpu3.num_cc_register_reads                  18                       # number of times the CC registers were read
system.cpu3.num_cc_register_writes                 14                       # number of times the CC registers were written
system.cpu3.num_conditional_control_insts            1                       # number of instructions that are conditional controls
system.cpu3.num_fp_alu_accesses                     6                       # Number of float alu accesses
system.cpu3.num_fp_insts                            6                       # number of float instructions
system.cpu3.num_fp_register_reads                   3                       # number of times the floating registers were read
system.cpu3.num_fp_register_writes                  3                       # number of times the floating registers were written
system.cpu3.num_func_calls                          0                       # number of times a function call or return occured
system.cpu3.num_idle_cycles                         0                       # Number of idle cycles
system.cpu3.num_int_alu_accesses                   23                       # Number of integer alu accesses
system.cpu3.num_int_insts                          23                       # number of integer instructions
system.cpu3.num_int_register_reads                 54                       # number of times the integer registers were read
system.cpu3.num_int_register_writes                15                       # number of times the integer registers were written
system.cpu3.num_load_insts                          4                       # Number of load instructions
system.cpu3.num_mem_refs                           10                       # number of memory refs
system.cpu3.num_store_insts                         6                       # Number of store instructions
system.cpu3.num_vec_alu_accesses                    0                       # Number of vector alu accesses
system.cpu3.num_vec_insts                           0                       # number of vector instructions
system.cpu3.num_vec_register_reads                  0                       # number of times the vector registers were read
system.cpu3.num_vec_register_writes                 0                       # number of times the vector registers were written
system.cpu3.op_class::No_OpClass                    0      0.00%      0.00% # Class of executed instruction
system.cpu3.op_class::IntAlu                       13     52.00%     52.00% # Class of executed instruction
system.cpu3.op_class::IntMult                       0      0.00%     52.00% # Class of executed instruction
system.cpu3.op_class::IntDiv                        0      0.00%     52.00% # Class of executed instruction
system.cpu3.op_class::FloatAdd                      2      8.00%     60.00% # Class of executed instruction
system.cpu3.op_class::FloatCmp                      0      0.00%     60.00% # Class of executed instruction
system.cpu3.op_class::FloatCvt                      0      0.00%     60.00% # Class of executed instruction
system.cpu3.op_class::FloatMult                     0      0.00%     60.00% # Class of executed instruction
system.cpu3.op_class::FloatMultAcc                  0      0.00%     60.00% # Class of executed instruction
system.cpu3.op_class::FloatDiv                      0      0.00%     60.00% # Class of executed instruction
system.cpu3.op_class::FloatMisc                     0      0.00%     60.00% # Class of executed instruction
system.cpu3.op_class::FloatSqrt                     0      0.00%     60.00% # Class of executed instruction
system.cpu3.op_class::SimdAdd                       0      0.00%     60.00% # Class of executed instruction
system.cpu3.op_class::SimdAddAcc                    0      0.00%     60.00% # Class of executed instruction
system.cpu3.op_class::SimdAlu                       0      0.00%     60.00% # Class of executed instruction
system.cpu3.op_class::SimdCmp                       0      0.00%     60.00% # Class of executed instruction
system.cpu3.op_class::SimdCvt                       0      0.00%     60.00% # Class of executed instruction
system.cpu3.op_class::SimdMisc                      0      0.00%     60.00% # Class of executed instruction
system.cpu3.op_class::SimdMult                      0      0.00%     60.00% # Class of executed instruction
system.cpu3.op_class::SimdMultAcc                   0      0.00%     60.00% # Class of executed instruction
system.cpu3.op_class::SimdShift                     0      0.00%     60.00% # Class of executed instruction
system.cpu3.op_class::SimdShiftAcc                  0      0.00%     60.00% # Class of executed instruction
system.cpu3.op_class::SimdDiv                       0      0.00%     60.00% # Class of executed instruction
system.cpu3.op_class::SimdSqrt                      0      0.00%     60.00% # Class of executed instruction
system.cpu3.op_class::SimdFloatAdd                  0      0.00%     60.00% # Class of executed instruction
system.cpu3.op_class::SimdFloatAlu                  0      0.00%     60.00% # Class of executed instruction
system.cpu3.op_class::SimdFloatCmp                  0      0.00%     60.00% # Class of executed instruction
system.cpu3.op_class::SimdFloatCvt                  0      0.00%     60.00% # Class of executed instruction
system.cpu3.op_class::SimdFloatDiv                  0      0.00%     60.00% # Class of executed instruction
system.cpu3.op_class::SimdFloatMisc                 0      0.00%     60.00% # Class of executed instruction
system.cpu3.op_class::SimdFloatMult                 0      0.00%     60.00% # Class of executed instruction
system.cpu3.op_class::SimdFloatMultAcc              0      0.00%     60.00% # Class of executed instruction
system.cpu3.op_class::SimdFloatSqrt                 0      0.00%     60.00% # Class of executed instruction
system.cpu3.op_class::SimdReduceAdd                 0      0.00%     60.00% # Class of executed instruction
system.cpu3.op_class::SimdReduceAlu                 0      0.00%     60.00% # Class of executed instruction
system.cpu3.op_class::SimdReduceCmp                 0      0.00%     60.00% # Class of executed instruction
system.cpu3.op_class::SimdFloatReduceAdd            0      0.00%     60.00% # Class of executed instruction
system.cpu3.op_class::SimdFloatReduceCmp            0      0.00%     60.00% # Class of executed instruction
system.cpu3.op_class::SimdAes                       0      0.00%     60.00% # Class of executed instruction
system.cpu3.op_class::SimdAesMix                    0      0.00%     60.00% # Class of executed instruction
system.cpu3.op_class::SimdSha1Hash                  0      0.00%     60.00% # Class of executed instruction
system.cpu3.op_class::SimdSha1Hash2                 0      0.00%     60.00% # Class of executed instruction
system.cpu3.op_class::SimdSha256Hash                0      0.00%     60.00% # Class of executed instruction
system.cpu3.op_class::SimdSha256Hash2               0      0.00%     60.00% # Class of executed instruction
system.cpu3.op_class::SimdShaSigma2                 0      0.00%     60.00% # Class of executed instruction
system.cpu3.op_class::SimdShaSigma3                 0      0.00%     60.00% # Class of executed instruction
system.cpu3.op_class::SimdPredAlu                   0      0.00%     60.00% # Class of executed instruction
system.cpu3.op_class::MemRead                       3     12.00%     72.00% # Class of executed instruction
system.cpu3.op_class::MemWrite                      3     12.00%     84.00% # Class of executed instruction
system.cpu3.op_class::FloatMemRead                  1      4.00%     88.00% # Class of executed instruction
system.cpu3.op_class::FloatMemWrite                 3     12.00%    100.00% # Class of executed instruction
system.cpu3.op_class::IprAccess                     0      0.00%    100.00% # Class of executed instruction
system.cpu3.op_class::InstPrefetch                  0      0.00%    100.00% # Class of executed instruction
system.cpu3.op_class::total                        25                       # Class of executed instruction
system.cpu3.workload.numSyscalls                    0                       # Number of system calls
system.l3bus.snoop_filter.hit_multi_requests            0                       # Number of requests hitting in the snoop filter with multiple (>1) holders of the requested data.
system.l3bus.snoop_filter.hit_multi_snoops            0                       # Number of snoops hitting in the snoop filter with multiple (>1) holders of the requested data.
system.l3bus.snoop_filter.hit_single_requests      1918658                       # Number of requests hitting in the snoop filter with a single holder of the requested data.
system.l3bus.snoop_filter.hit_single_snoops            0                       # Number of snoops hitting in the snoop filter with a single holder of the requested data.
system.l3bus.snoop_filter.tot_requests        3854738                       # Total number of requests made to the snoop filter.
system.l3bus.snoop_filter.tot_snoops                0                       # Total number of snoops made to the snoop filter.
system.membus.snoop_filter.hit_multi_requests            0                       # Number of requests hitting in the snoop filter with multiple (>1) holders of the requested data.
system.membus.snoop_filter.hit_multi_snoops            0                       # Number of snoops hitting in the snoop filter with multiple (>1) holders of the requested data.
system.membus.snoop_filter.hit_single_requests       937771                       # Number of requests hitting in the snoop filter with a single holder of the requested data.
system.membus.snoop_filter.hit_single_snoops            0                       # Number of snoops hitting in the snoop filter with a single holder of the requested data.
system.membus.snoop_filter.tot_requests       1955142                       # Total number of requests made to the snoop filter.
system.membus.snoop_filter.tot_snoops               0                       # Total number of snoops made to the snoop filter.
system.switch_cpus0.cc_regfile_reads         37956408                       # number of cc regfile reads
system.switch_cpus0.cc_regfile_writes        31535847                       # number of cc regfile writes
system.switch_cpus0.committedInsts           79632310                       # Number of Instructions Simulated
system.switch_cpus0.committedOps            122891990                       # Number of Ops (including micro ops) Simulated
system.switch_cpus0.cpi                      1.090335                       # CPI: Cycles Per Instruction
system.switch_cpus0.cpi_total                1.090335                       # CPI: Total CPI of All Threads
system.switch_cpus0.fp_regfile_reads        101875299                       # number of floating regfile reads
system.switch_cpus0.fp_regfile_writes        50439659                       # number of floating regfile writes
system.switch_cpus0.idleCycles                  46877                       # Total number of cycles that the CPU has spent unscheduled due to idling
system.switch_cpus0.iew.branchMispredicts         8063                       # Number of branch mispredicts detected at execute
system.switch_cpus0.iew.exec_branches         8191882                       # Number of branches executed
system.switch_cpus0.iew.exec_nop                    0                       # number of nop insts executed
system.switch_cpus0.iew.exec_rate            1.416594                       # Inst execution rate
system.switch_cpus0.iew.exec_refs            29392821                       # number of memory reference insts executed
system.switch_cpus0.iew.exec_stores           8092960                       # Number of stores executed
system.switch_cpus0.iew.exec_swp                    0                       # number of swp insts executed
system.switch_cpus0.iew.iewBlockCycles       20091061                       # Number of cycles IEW is blocking
system.switch_cpus0.iew.iewDispLoadInsts     21316920                       # Number of dispatched load instructions
system.switch_cpus0.iew.iewDispNonSpecInsts            3                       # Number of dispatched non-speculative instructions
system.switch_cpus0.iew.iewDispSquashedInsts          453                       # Number of squashed instructions skipped by dispatch
system.switch_cpus0.iew.iewDispStoreInsts      8106886                       # Number of dispatched store instructions
system.switch_cpus0.iew.iewDispatchedInsts    123105415                       # Number of instructions dispatched to IQ
system.switch_cpus0.iew.iewExecLoadInsts     21299861                       # Number of load instructions executed
system.switch_cpus0.iew.iewExecSquashedInsts        19681                       # Number of squashed instructions skipped in execute
system.switch_cpus0.iew.iewExecutedInsts    122997017                       # Number of executed instructions
system.switch_cpus0.iew.iewIQFullEvents         85398                       # Number of times the IQ has become full, causing a stall
system.switch_cpus0.iew.iewIdleCycles               0                       # Number of cycles IEW is idle
system.switch_cpus0.iew.iewLSQFullEvents     10181266                       # Number of times the LSQ has become full, causing a stall
system.switch_cpus0.iew.iewSquashCycles          8511                       # Number of cycles IEW is squashing
system.switch_cpus0.iew.iewUnblockCycles     10334047                       # Number of cycles IEW is unblocking
system.switch_cpus0.iew.memOrderViolationEvents          551                       # Number of memory order violations
system.switch_cpus0.iew.predictedNotTakenIncorrect         1777                       # Number of branches that were predicted not taken incorrectly
system.switch_cpus0.iew.predictedTakenIncorrect         6286                       # Number of branches that were predicted taken incorrectly
system.switch_cpus0.iew.wb_consumers        153198162                       # num instructions consuming a value
system.switch_cpus0.iew.wb_count            122974981                       # cumulative count of insts written-back
system.switch_cpus0.iew.wb_fanout            0.601845                       # average fanout of values written-back
system.switch_cpus0.iew.wb_producers         92201532                       # num instructions producing a value
system.switch_cpus0.iew.wb_rate              1.416340                       # insts written-back per cycle
system.switch_cpus0.iew.wb_sent             122985029                       # cumulative count of insts sent to commit
system.switch_cpus0.int_regfile_reads       119187649                       # number of integer regfile reads
system.switch_cpus0.int_regfile_writes       54207483                       # number of integer regfile writes
system.switch_cpus0.ipc                      0.917149                       # IPC: Instructions Per Cycle
system.switch_cpus0.ipc_total                0.917149                       # IPC: Total IPC of All Threads
system.switch_cpus0.iq.FU_type_0::No_OpClass         6657      0.01%      0.01% # Type of FU issued
system.switch_cpus0.iq.FU_type_0::IntAlu     63669113     51.76%     51.76% # Type of FU issued
system.switch_cpus0.iq.FU_type_0::IntMult         2362      0.00%     51.76% # Type of FU issued
system.switch_cpus0.iq.FU_type_0::IntDiv            0      0.00%     51.76% # Type of FU issued
system.switch_cpus0.iq.FU_type_0::FloatAdd      1966929      1.60%     53.36% # Type of FU issued
system.switch_cpus0.iq.FU_type_0::FloatCmp            0      0.00%     53.36% # Type of FU issued
system.switch_cpus0.iq.FU_type_0::FloatCvt            0      0.00%     53.36% # Type of FU issued
system.switch_cpus0.iq.FU_type_0::FloatMult            0      0.00%     53.36% # Type of FU issued
system.switch_cpus0.iq.FU_type_0::FloatMultAcc            0      0.00%     53.36% # Type of FU issued
system.switch_cpus0.iq.FU_type_0::FloatDiv            0      0.00%     53.36% # Type of FU issued
system.switch_cpus0.iq.FU_type_0::FloatMisc            0      0.00%     53.36% # Type of FU issued
system.switch_cpus0.iq.FU_type_0::FloatSqrt            0      0.00%     53.36% # Type of FU issued
system.switch_cpus0.iq.FU_type_0::SimdAdd            0      0.00%     53.36% # Type of FU issued
system.switch_cpus0.iq.FU_type_0::SimdAddAcc            0      0.00%     53.36% # Type of FU issued
system.switch_cpus0.iq.FU_type_0::SimdAlu      2592777      2.11%     55.47% # Type of FU issued
system.switch_cpus0.iq.FU_type_0::SimdCmp            0      0.00%     55.47% # Type of FU issued
system.switch_cpus0.iq.FU_type_0::SimdCvt            0      0.00%     55.47% # Type of FU issued
system.switch_cpus0.iq.FU_type_0::SimdMisc      1182210      0.96%     56.43% # Type of FU issued
system.switch_cpus0.iq.FU_type_0::SimdMult            0      0.00%     56.43% # Type of FU issued
system.switch_cpus0.iq.FU_type_0::SimdMultAcc            0      0.00%     56.43% # Type of FU issued
system.switch_cpus0.iq.FU_type_0::SimdShift            0      0.00%     56.43% # Type of FU issued
system.switch_cpus0.iq.FU_type_0::SimdShiftAcc            0      0.00%     56.43% # Type of FU issued
system.switch_cpus0.iq.FU_type_0::SimdDiv            0      0.00%     56.43% # Type of FU issued
system.switch_cpus0.iq.FU_type_0::SimdSqrt            0      0.00%     56.43% # Type of FU issued
system.switch_cpus0.iq.FU_type_0::SimdFloatAdd      9588245      7.79%     64.23% # Type of FU issued
system.switch_cpus0.iq.FU_type_0::SimdFloatAlu            0      0.00%     64.23% # Type of FU issued
system.switch_cpus0.iq.FU_type_0::SimdFloatCmp       376832      0.31%     64.53% # Type of FU issued
system.switch_cpus0.iq.FU_type_0::SimdFloatCvt      2048216      1.66%     66.20% # Type of FU issued
system.switch_cpus0.iq.FU_type_0::SimdFloatDiv      2276855      1.85%     68.05% # Type of FU issued
system.switch_cpus0.iq.FU_type_0::SimdFloatMisc            0      0.00%     68.05% # Type of FU issued
system.switch_cpus0.iq.FU_type_0::SimdFloatMult      9493642      7.72%     75.77% # Type of FU issued
system.switch_cpus0.iq.FU_type_0::SimdFloatMultAcc            0      0.00%     75.77% # Type of FU issued
system.switch_cpus0.iq.FU_type_0::SimdFloatSqrt       409602      0.33%     76.10% # Type of FU issued
system.switch_cpus0.iq.FU_type_0::SimdReduceAdd            0      0.00%     76.10% # Type of FU issued
system.switch_cpus0.iq.FU_type_0::SimdReduceAlu            0      0.00%     76.10% # Type of FU issued
system.switch_cpus0.iq.FU_type_0::SimdReduceCmp            0      0.00%     76.10% # Type of FU issued
system.switch_cpus0.iq.FU_type_0::SimdFloatReduceAdd            0      0.00%     76.10% # Type of FU issued
system.switch_cpus0.iq.FU_type_0::SimdFloatReduceCmp            0      0.00%     76.10% # Type of FU issued
system.switch_cpus0.iq.FU_type_0::SimdAes            0      0.00%     76.10% # Type of FU issued
system.switch_cpus0.iq.FU_type_0::SimdAesMix            0      0.00%     76.10% # Type of FU issued
system.switch_cpus0.iq.FU_type_0::SimdSha1Hash            0      0.00%     76.10% # Type of FU issued
system.switch_cpus0.iq.FU_type_0::SimdSha1Hash2            0      0.00%     76.10% # Type of FU issued
system.switch_cpus0.iq.FU_type_0::SimdSha256Hash            0      0.00%     76.10% # Type of FU issued
system.switch_cpus0.iq.FU_type_0::SimdSha256Hash2            0      0.00%     76.10% # Type of FU issued
system.switch_cpus0.iq.FU_type_0::SimdShaSigma2            0      0.00%     76.10% # Type of FU issued
system.switch_cpus0.iq.FU_type_0::SimdShaSigma3            0      0.00%     76.10% # Type of FU issued
system.switch_cpus0.iq.FU_type_0::SimdPredAlu            0      0.00%     76.10% # Type of FU issued
system.switch_cpus0.iq.FU_type_0::MemRead      7613566      6.19%     82.29% # Type of FU issued
system.switch_cpus0.iq.FU_type_0::MemWrite      2806642      2.28%     84.57% # Type of FU issued
system.switch_cpus0.iq.FU_type_0::FloatMemRead     13695761     11.13%     95.70% # Type of FU issued
system.switch_cpus0.iq.FU_type_0::FloatMemWrite      5287294      4.30%    100.00% # Type of FU issued
system.switch_cpus0.iq.FU_type_0::IprAccess            0      0.00%    100.00% # Type of FU issued
system.switch_cpus0.iq.FU_type_0::InstPrefetch            0      0.00%    100.00% # Type of FU issued
system.switch_cpus0.iq.FU_type_0::total     123016703                       # Type of FU issued
system.switch_cpus0.iq.fp_alu_accesses       59408347                       # Number of floating point alu accesses
system.switch_cpus0.iq.fp_inst_queue_reads    118377271                       # Number of floating instruction queue reads
system.switch_cpus0.iq.fp_inst_queue_wakeup_accesses     58950729                       # Number of floating instruction queue wakeup accesses
system.switch_cpus0.iq.fp_inst_queue_writes     59121702                       # Number of floating instruction queue writes
system.switch_cpus0.iq.fu_busy_cnt            1208216                       # FU busy when requested
system.switch_cpus0.iq.fu_busy_rate          0.009822                       # FU busy rate (busy events/executed inst)
system.switch_cpus0.iq.fu_full::No_OpClass            0      0.00%      0.00% # attempts to use FU when none available
system.switch_cpus0.iq.fu_full::IntAlu         551669     45.66%     45.66% # attempts to use FU when none available
system.switch_cpus0.iq.fu_full::IntMult             0      0.00%     45.66% # attempts to use FU when none available
system.switch_cpus0.iq.fu_full::IntDiv              0      0.00%     45.66% # attempts to use FU when none available
system.switch_cpus0.iq.fu_full::FloatAdd            0      0.00%     45.66% # attempts to use FU when none available
system.switch_cpus0.iq.fu_full::FloatCmp            0      0.00%     45.66% # attempts to use FU when none available
system.switch_cpus0.iq.fu_full::FloatCvt            0      0.00%     45.66% # attempts to use FU when none available
system.switch_cpus0.iq.fu_full::FloatMult            0      0.00%     45.66% # attempts to use FU when none available
system.switch_cpus0.iq.fu_full::FloatMultAcc            0      0.00%     45.66% # attempts to use FU when none available
system.switch_cpus0.iq.fu_full::FloatDiv            0      0.00%     45.66% # attempts to use FU when none available
system.switch_cpus0.iq.fu_full::FloatMisc            0      0.00%     45.66% # attempts to use FU when none available
system.switch_cpus0.iq.fu_full::FloatSqrt            0      0.00%     45.66% # attempts to use FU when none available
system.switch_cpus0.iq.fu_full::SimdAdd             0      0.00%     45.66% # attempts to use FU when none available
system.switch_cpus0.iq.fu_full::SimdAddAcc            0      0.00%     45.66% # attempts to use FU when none available
system.switch_cpus0.iq.fu_full::SimdAlu         29476      2.44%     48.10% # attempts to use FU when none available
system.switch_cpus0.iq.fu_full::SimdCmp             0      0.00%     48.10% # attempts to use FU when none available
system.switch_cpus0.iq.fu_full::SimdCvt             0      0.00%     48.10% # attempts to use FU when none available
system.switch_cpus0.iq.fu_full::SimdMisc            0      0.00%     48.10% # attempts to use FU when none available
system.switch_cpus0.iq.fu_full::SimdMult            0      0.00%     48.10% # attempts to use FU when none available
system.switch_cpus0.iq.fu_full::SimdMultAcc            0      0.00%     48.10% # attempts to use FU when none available
system.switch_cpus0.iq.fu_full::SimdShift            0      0.00%     48.10% # attempts to use FU when none available
system.switch_cpus0.iq.fu_full::SimdShiftAcc            0      0.00%     48.10% # attempts to use FU when none available
system.switch_cpus0.iq.fu_full::SimdDiv             0      0.00%     48.10% # attempts to use FU when none available
system.switch_cpus0.iq.fu_full::SimdSqrt            0      0.00%     48.10% # attempts to use FU when none available
system.switch_cpus0.iq.fu_full::SimdFloatAdd        52835      4.37%     52.47% # attempts to use FU when none available
system.switch_cpus0.iq.fu_full::SimdFloatAlu            0      0.00%     52.47% # attempts to use FU when none available
system.switch_cpus0.iq.fu_full::SimdFloatCmp            0      0.00%     52.47% # attempts to use FU when none available
system.switch_cpus0.iq.fu_full::SimdFloatCvt            0      0.00%     52.47% # attempts to use FU when none available
system.switch_cpus0.iq.fu_full::SimdFloatDiv        18336      1.52%     53.99% # attempts to use FU when none available
system.switch_cpus0.iq.fu_full::SimdFloatMisc            0      0.00%     53.99% # attempts to use FU when none available
system.switch_cpus0.iq.fu_full::SimdFloatMult       105138      8.70%     62.69% # attempts to use FU when none available
system.switch_cpus0.iq.fu_full::SimdFloatMultAcc            0      0.00%     62.69% # attempts to use FU when none available
system.switch_cpus0.iq.fu_full::SimdFloatSqrt            0      0.00%     62.69% # attempts to use FU when none available
system.switch_cpus0.iq.fu_full::SimdReduceAdd            0      0.00%     62.69% # attempts to use FU when none available
system.switch_cpus0.iq.fu_full::SimdReduceAlu            0      0.00%     62.69% # attempts to use FU when none available
system.switch_cpus0.iq.fu_full::SimdReduceCmp            0      0.00%     62.69% # attempts to use FU when none available
system.switch_cpus0.iq.fu_full::SimdFloatReduceAdd            0      0.00%     62.69% # attempts to use FU when none available
system.switch_cpus0.iq.fu_full::SimdFloatReduceCmp            0      0.00%     62.69% # attempts to use FU when none available
system.switch_cpus0.iq.fu_full::SimdAes             0      0.00%     62.69% # attempts to use FU when none available
system.switch_cpus0.iq.fu_full::SimdAesMix            0      0.00%     62.69% # attempts to use FU when none available
system.switch_cpus0.iq.fu_full::SimdSha1Hash            0      0.00%     62.69% # attempts to use FU when none available
system.switch_cpus0.iq.fu_full::SimdSha1Hash2            0      0.00%     62.69% # attempts to use FU when none available
system.switch_cpus0.iq.fu_full::SimdSha256Hash            0      0.00%     62.69% # attempts to use FU when none available
system.switch_cpus0.iq.fu_full::SimdSha256Hash2            0      0.00%     62.69% # attempts to use FU when none available
system.switch_cpus0.iq.fu_full::SimdShaSigma2            0      0.00%     62.69% # attempts to use FU when none available
system.switch_cpus0.iq.fu_full::SimdShaSigma3            0      0.00%     62.69% # attempts to use FU when none available
system.switch_cpus0.iq.fu_full::SimdPredAlu            0      0.00%     62.69% # attempts to use FU when none available
system.switch_cpus0.iq.fu_full::MemRead        216998     17.96%     80.65% # attempts to use FU when none available
system.switch_cpus0.iq.fu_full::MemWrite         4174      0.35%     81.00% # attempts to use FU when none available
system.switch_cpus0.iq.fu_full::FloatMemRead       228646     18.92%     99.92% # attempts to use FU when none available
system.switch_cpus0.iq.fu_full::FloatMemWrite          944      0.08%    100.00% # attempts to use FU when none available
system.switch_cpus0.iq.fu_full::IprAccess            0      0.00%    100.00% # attempts to use FU when none available
system.switch_cpus0.iq.fu_full::InstPrefetch            0      0.00%    100.00% # attempts to use FU when none available
system.switch_cpus0.iq.int_alu_accesses      64809915                       # Number of integer alu accesses
system.switch_cpus0.iq.int_inst_queue_reads    215646185                       # Number of integer instruction queue reads
system.switch_cpus0.iq.int_inst_queue_wakeup_accesses     64024252                       # Number of integer instruction queue wakeup accesses
system.switch_cpus0.iq.int_inst_queue_writes     64197596                       # Number of integer instruction queue writes
system.switch_cpus0.iq.iqInstsAdded         123105406                       # Number of instructions added to the IQ (excludes non-spec)
system.switch_cpus0.iq.iqInstsIssued        123016703                       # Number of instructions issued
system.switch_cpus0.iq.iqNonSpecInstsAdded            9                       # Number of non-speculative instructions added to the IQ
system.switch_cpus0.iq.iqSquashedInstsExamined       213343                       # Number of squashed instructions iterated over during squash; mainly for profiling
system.switch_cpus0.iq.iqSquashedInstsIssued         2821                       # Number of squashed instructions issued
system.switch_cpus0.iq.iqSquashedNonSpecRemoved            9                       # Number of squashed non-spec instructions that were removed
system.switch_cpus0.iq.iqSquashedOperandsExamined       377388                       # Number of squashed operands that are examined and possibly removed from graph
system.switch_cpus0.iq.issued_per_cycle::samples     86779018                       # Number of insts issued each cycle
system.switch_cpus0.iq.issued_per_cycle::mean     1.417586                       # Number of insts issued each cycle
system.switch_cpus0.iq.issued_per_cycle::stdev     2.529715                       # Number of insts issued each cycle
system.switch_cpus0.iq.issued_per_cycle::underflows            0      0.00%      0.00% # Number of insts issued each cycle
system.switch_cpus0.iq.issued_per_cycle::0     61354962     70.70%     70.70% # Number of insts issued each cycle
system.switch_cpus0.iq.issued_per_cycle::1      2702992      3.11%     73.82% # Number of insts issued each cycle
system.switch_cpus0.iq.issued_per_cycle::2      2581944      2.98%     76.79% # Number of insts issued each cycle
system.switch_cpus0.iq.issued_per_cycle::3      2565187      2.96%     79.75% # Number of insts issued each cycle
system.switch_cpus0.iq.issued_per_cycle::4      3249414      3.74%     83.49% # Number of insts issued each cycle
system.switch_cpus0.iq.issued_per_cycle::5      3414488      3.93%     87.43% # Number of insts issued each cycle
system.switch_cpus0.iq.issued_per_cycle::6      3227270      3.72%     91.15% # Number of insts issued each cycle
system.switch_cpus0.iq.issued_per_cycle::7      3441542      3.97%     95.11% # Number of insts issued each cycle
system.switch_cpus0.iq.issued_per_cycle::8      4241219      4.89%    100.00% # Number of insts issued each cycle
system.switch_cpus0.iq.issued_per_cycle::overflows            0      0.00%    100.00% # Number of insts issued each cycle
system.switch_cpus0.iq.issued_per_cycle::min_value            0                       # Number of insts issued each cycle
system.switch_cpus0.iq.issued_per_cycle::max_value            8                       # Number of insts issued each cycle
system.switch_cpus0.iq.issued_per_cycle::total     86779018                       # Number of insts issued each cycle
system.switch_cpus0.iq.rate                  1.416820                       # Inst issue rate
system.switch_cpus0.iq.vec_alu_accesses             0                       # Number of vector alu accesses
system.switch_cpus0.iq.vec_inst_queue_reads            0                       # Number of vector instruction queue reads
system.switch_cpus0.iq.vec_inst_queue_wakeup_accesses            0                       # Number of vector instruction queue wakeup accesses
system.switch_cpus0.iq.vec_inst_queue_writes            0                       # Number of vector instruction queue writes
system.switch_cpus0.memDep0.conflictingLoads       718513                       # Number of conflicting loads.
system.switch_cpus0.memDep0.conflictingStores       680683                       # Number of conflicting stores.
system.switch_cpus0.memDep0.insertedLoads     21316920                       # Number of loads inserted to the mem dependence unit.
system.switch_cpus0.memDep0.insertedStores      8106886                       # Number of stores inserted to the mem dependence unit.
system.switch_cpus0.misc_regfile_reads       49927665                       # number of misc regfile reads
system.switch_cpus0.misc_regfile_writes             1                       # number of misc regfile writes
system.switch_cpus0.numCycles                86825895                       # number of cpu cycles simulated
system.switch_cpus0.numWorkItemsCompleted            0                       # number of work items this cpu completed
system.switch_cpus0.numWorkItemsStarted             0                       # number of work items this cpu started
system.switch_cpus0.timesIdled                    225                       # Number of times that the entire CPU went into an idle state and unscheduled itself
system.switch_cpus1.cc_regfile_reads         83008132                       # number of cc regfile reads
system.switch_cpus1.cc_regfile_writes        34043009                       # number of cc regfile writes
system.switch_cpus1.committedInsts           54592404                       # Number of Instructions Simulated
system.switch_cpus1.committedOps             94015414                       # Number of Ops (including micro ops) Simulated
system.switch_cpus1.cpi                      1.590439                       # CPI: Cycles Per Instruction
system.switch_cpus1.cpi_total                1.590439                       # CPI: Total CPI of All Threads
system.switch_cpus1.fp_regfile_writes              56                       # number of floating regfile writes
system.switch_cpus1.idleCycles                  11310                       # Total number of cycles that the CPU has spent unscheduled due to idling
system.switch_cpus1.iew.branchMispredicts      1297464                       # Number of branch mispredicts detected at execute
system.switch_cpus1.iew.exec_branches        21831241                       # Number of branches executed
system.switch_cpus1.iew.exec_nop                    0                       # number of nop insts executed
system.switch_cpus1.iew.exec_rate            1.735002                       # Inst execution rate
system.switch_cpus1.iew.exec_refs            37463401                       # number of memory reference insts executed
system.switch_cpus1.iew.exec_stores           7780838                       # Number of stores executed
system.switch_cpus1.iew.exec_swp                    0                       # number of swp insts executed
system.switch_cpus1.iew.iewBlockCycles       35855247                       # Number of cycles IEW is blocking
system.switch_cpus1.iew.iewDispLoadInsts     34368054                       # Number of dispatched load instructions
system.switch_cpus1.iew.iewDispNonSpecInsts            0                       # Number of dispatched non-speculative instructions
system.switch_cpus1.iew.iewDispSquashedInsts        46655                       # Number of squashed instructions skipped by dispatch
system.switch_cpus1.iew.iewDispStoreInsts      8965231                       # Number of dispatched store instructions
system.switch_cpus1.iew.iewDispatchedInsts    172531895                       # Number of instructions dispatched to IQ
system.switch_cpus1.iew.iewExecLoadInsts     29682563                       # Number of load instructions executed
system.switch_cpus1.iew.iewExecSquashedInsts      3876231                       # Number of squashed instructions skipped in execute
system.switch_cpus1.iew.iewExecutedInsts    150643118                       # Number of executed instructions
system.switch_cpus1.iew.iewIQFullEvents        166671                       # Number of times the IQ has become full, causing a stall
system.switch_cpus1.iew.iewIdleCycles               0                       # Number of cycles IEW is idle
system.switch_cpus1.iew.iewLSQFullEvents      3340443                       # Number of times the LSQ has become full, causing a stall
system.switch_cpus1.iew.iewSquashCycles       1257062                       # Number of cycles IEW is squashing
system.switch_cpus1.iew.iewUnblockCycles      3644918                       # Number of cycles IEW is unblocking
system.switch_cpus1.iew.memOrderViolationEvents         5803                       # Number of memory order violations
system.switch_cpus1.iew.predictedNotTakenIncorrect       713987                       # Number of branches that were predicted not taken incorrectly
system.switch_cpus1.iew.predictedTakenIncorrect       583477                       # Number of branches that were predicted taken incorrectly
system.switch_cpus1.iew.wb_consumers        157673016                       # num instructions consuming a value
system.switch_cpus1.iew.wb_count            148755256                       # cumulative count of insts written-back
system.switch_cpus1.iew.wb_fanout            0.654943                       # average fanout of values written-back
system.switch_cpus1.iew.wb_producers        103266785                       # num instructions producing a value
system.switch_cpus1.iew.wb_rate              1.713259                       # insts written-back per cycle
system.switch_cpus1.iew.wb_sent             149770309                       # cumulative count of insts sent to commit
system.switch_cpus1.int_regfile_reads       215822703                       # number of integer regfile reads
system.switch_cpus1.int_regfile_writes      121036285                       # number of integer regfile writes
system.switch_cpus1.ipc                      0.628757                       # IPC: Instructions Per Cycle
system.switch_cpus1.ipc_total                0.628757                       # IPC: Total IPC of All Threads
system.switch_cpus1.iq.FU_type_0::No_OpClass        64633      0.04%      0.04% # Type of FU issued
system.switch_cpus1.iq.FU_type_0::IntAlu    114800632     74.30%     74.34% # Type of FU issued
system.switch_cpus1.iq.FU_type_0::IntMult       157982      0.10%     74.44% # Type of FU issued
system.switch_cpus1.iq.FU_type_0::IntDiv       400585      0.26%     74.70% # Type of FU issued
system.switch_cpus1.iq.FU_type_0::FloatAdd            0      0.00%     74.70% # Type of FU issued
system.switch_cpus1.iq.FU_type_0::FloatCmp            0      0.00%     74.70% # Type of FU issued
system.switch_cpus1.iq.FU_type_0::FloatCvt            0      0.00%     74.70% # Type of FU issued
system.switch_cpus1.iq.FU_type_0::FloatMult            0      0.00%     74.70% # Type of FU issued
system.switch_cpus1.iq.FU_type_0::FloatMultAcc            0      0.00%     74.70% # Type of FU issued
system.switch_cpus1.iq.FU_type_0::FloatDiv            0      0.00%     74.70% # Type of FU issued
system.switch_cpus1.iq.FU_type_0::FloatMisc            0      0.00%     74.70% # Type of FU issued
system.switch_cpus1.iq.FU_type_0::FloatSqrt            0      0.00%     74.70% # Type of FU issued
system.switch_cpus1.iq.FU_type_0::SimdAdd            0      0.00%     74.70% # Type of FU issued
system.switch_cpus1.iq.FU_type_0::SimdAddAcc            0      0.00%     74.70% # Type of FU issued
system.switch_cpus1.iq.FU_type_0::SimdAlu            0      0.00%     74.70% # Type of FU issued
system.switch_cpus1.iq.FU_type_0::SimdCmp            0      0.00%     74.70% # Type of FU issued
system.switch_cpus1.iq.FU_type_0::SimdCvt            0      0.00%     74.70% # Type of FU issued
system.switch_cpus1.iq.FU_type_0::SimdMisc            0      0.00%     74.70% # Type of FU issued
system.switch_cpus1.iq.FU_type_0::SimdMult            0      0.00%     74.70% # Type of FU issued
system.switch_cpus1.iq.FU_type_0::SimdMultAcc            0      0.00%     74.70% # Type of FU issued
system.switch_cpus1.iq.FU_type_0::SimdShift            0      0.00%     74.70% # Type of FU issued
system.switch_cpus1.iq.FU_type_0::SimdShiftAcc            0      0.00%     74.70% # Type of FU issued
system.switch_cpus1.iq.FU_type_0::SimdDiv            0      0.00%     74.70% # Type of FU issued
system.switch_cpus1.iq.FU_type_0::SimdSqrt            0      0.00%     74.70% # Type of FU issued
system.switch_cpus1.iq.FU_type_0::SimdFloatAdd            0      0.00%     74.70% # Type of FU issued
system.switch_cpus1.iq.FU_type_0::SimdFloatAlu            0      0.00%     74.70% # Type of FU issued
system.switch_cpus1.iq.FU_type_0::SimdFloatCmp            0      0.00%     74.70% # Type of FU issued
system.switch_cpus1.iq.FU_type_0::SimdFloatCvt            0      0.00%     74.70% # Type of FU issued
system.switch_cpus1.iq.FU_type_0::SimdFloatDiv            0      0.00%     74.70% # Type of FU issued
system.switch_cpus1.iq.FU_type_0::SimdFloatMisc            0      0.00%     74.70% # Type of FU issued
system.switch_cpus1.iq.FU_type_0::SimdFloatMult            0      0.00%     74.70% # Type of FU issued
system.switch_cpus1.iq.FU_type_0::SimdFloatMultAcc            0      0.00%     74.70% # Type of FU issued
system.switch_cpus1.iq.FU_type_0::SimdFloatSqrt            0      0.00%     74.70% # Type of FU issued
system.switch_cpus1.iq.FU_type_0::SimdReduceAdd            0      0.00%     74.70% # Type of FU issued
system.switch_cpus1.iq.FU_type_0::SimdReduceAlu            0      0.00%     74.70% # Type of FU issued
system.switch_cpus1.iq.FU_type_0::SimdReduceCmp            0      0.00%     74.70% # Type of FU issued
system.switch_cpus1.iq.FU_type_0::SimdFloatReduceAdd            0      0.00%     74.70% # Type of FU issued
system.switch_cpus1.iq.FU_type_0::SimdFloatReduceCmp            0      0.00%     74.70% # Type of FU issued
system.switch_cpus1.iq.FU_type_0::SimdAes            0      0.00%     74.70% # Type of FU issued
system.switch_cpus1.iq.FU_type_0::SimdAesMix            0      0.00%     74.70% # Type of FU issued
[...]
system.switch_cpus3.commit.numCommittedDist::stdev     3.369317                       # Number of insts commited each cycle
system.switch_cpus3.commit.numCommittedDist::underflows            0      0.00%      0.00% # Number of insts commited each cycle
system.switch_cpus3.commit.numCommittedDist::0     22630781     27.06%     27.06% # Number of insts commited each cycle
system.switch_cpus3.commit.numCommittedDist::1      9984451     11.94%     39.00% # Number of insts commited each cycle
system.switch_cpus3.commit.numCommittedDist::2      3870713      4.63%     43.63% # Number of insts commited each cycle
system.switch_cpus3.commit.numCommittedDist::3      6870597      8.22%     51.85% # Number of insts commited each cycle
system.switch_cpus3.commit.numCommittedDist::4      6880940      8.23%     60.07% # Number of insts commited each cycle
system.switch_cpus3.commit.numCommittedDist::5      1663968      1.99%     62.06% # Number of insts commited each cycle
system.switch_cpus3.commit.numCommittedDist::6      2049429      2.45%     64.52% # Number of insts commited each cycle
system.switch_cpus3.commit.numCommittedDist::7      1137420      1.36%     65.88% # Number of insts commited each cycle
system.switch_cpus3.commit.numCommittedDist::8     28536697     34.12%    100.00% # Number of insts commited each cycle
system.switch_cpus3.commit.numCommittedDist::overflows            0      0.00%    100.00% # Number of insts commited each cycle
system.switch_cpus3.commit.numCommittedDist::min_value            0                       # Number of insts commited each cycle
system.switch_cpus3.commit.numCommittedDist::max_value            8                       # Number of insts commited each cycle
system.switch_cpus3.commit.numCommittedDist::total     83624996                       # Number of insts commited each cycle
system.switch_cpus3.commit.instsCommitted    177867393                       # Number of instructions committed
system.switch_cpus3.commit.opsCommitted     322733358                       # Number of ops (including micro ops) committed
system.switch_cpus3.commit.memRefs           62597447                       # Number of memory references committed
system.switch_cpus3.commit.loads             44300049                       # Number of loads committed
system.switch_cpus3.commit.amos                     0                       # Number of atomic instructions committed
system.switch_cpus3.commit.membars                  0                       # Number of memory barriers committed
system.switch_cpus3.commit.branches          30826171                       # Number of branches committed
system.switch_cpus3.commit.vector                   0                       # Number of committed Vector instructions.
system.switch_cpus3.commit.floating         103138058                       # Number of committed floating point instructions.
system.switch_cpus3.commit.integer          247069318                       # Number of committed integer instructions.
system.switch_cpus3.commit.functionCalls      2446028                       # Number of function calls committed.
system.switch_cpus3.commit.committedInstType_0::No_OpClass        39719      0.01%      0.01% # Class of committed instruction
system.switch_cpus3.commit.committedInstType_0::IntAlu    200074302     61.99%     62.01% # Class of committed instruction
system.switch_cpus3.commit.committedInstType_0::IntMult            0      0.00%     62.01% # Class of committed instruction
system.switch_cpus3.commit.committedInstType_0::IntDiv            0      0.00%     62.01% # Class of committed instruction
system.switch_cpus3.commit.committedInstType_0::FloatAdd     25010252      7.75%     69.76% # Class of committed instruction
system.switch_cpus3.commit.committedInstType_0::FloatCmp            0      0.00%     69.76% # Class of committed instruction
system.switch_cpus3.commit.committedInstType_0::FloatCvt            0      0.00%     69.76% # Class of committed instruction
system.switch_cpus3.commit.committedInstType_0::FloatMult            0      0.00%     69.76% # Class of committed instruction
system.switch_cpus3.commit.committedInstType_0::FloatMultAcc            0      0.00%     69.76% # Class of committed instruction
system.switch_cpus3.commit.committedInstType_0::FloatDiv            0      0.00%     69.76% # Class of committed instruction
system.switch_cpus3.commit.committedInstType_0::FloatMisc            0      0.00%     69.76% # Class of committed instruction
system.switch_cpus3.commit.committedInstType_0::FloatSqrt            0      0.00%     69.76% # Class of committed instruction
system.switch_cpus3.commit.committedInstType_0::SimdAdd            0      0.00%     69.76% # Class of committed instruction
system.switch_cpus3.commit.committedInstType_0::SimdAddAcc            0      0.00%     69.76% # Class of committed instruction
system.switch_cpus3.commit.committedInstType_0::SimdAlu      4021652      1.25%     71.00% # Class of committed instruction
system.switch_cpus3.commit.committedInstType_0::SimdCmp            0      0.00%     71.00% # Class of committed instruction
system.switch_cpus3.commit.committedInstType_0::SimdCvt            0      0.00%     71.00% # Class of committed instruction
system.switch_cpus3.commit.committedInstType_0::SimdMisc      1294803      0.40%     71.40% # Class of committed instruction
system.switch_cpus3.commit.committedInstType_0::SimdMult            0      0.00%     71.40% # Class of committed instruction
system.switch_cpus3.commit.committedInstType_0::SimdMultAcc            0      0.00%     71.40% # Class of committed instruction
system.switch_cpus3.commit.committedInstType_0::SimdShift            0      0.00%     71.40% # Class of committed instruction
system.switch_cpus3.commit.committedInstType_0::SimdShiftAcc            0      0.00%     71.40% # Class of committed instruction
system.switch_cpus3.commit.committedInstType_0::SimdDiv            0      0.00%     71.40% # Class of committed instruction
system.switch_cpus3.commit.committedInstType_0::SimdSqrt            0      0.00%     71.40% # Class of committed instruction
system.switch_cpus3.commit.committedInstType_0::SimdFloatAdd     10121492      3.14%     74.54% # Class of committed instruction
system.switch_cpus3.commit.committedInstType_0::SimdFloatAlu            0      0.00%     74.54% # Class of committed instruction
system.switch_cpus3.commit.committedInstType_0::SimdFloatCmp          130      0.00%     74.54% # Class of committed instruction
system.switch_cpus3.commit.committedInstType_0::SimdFloatCvt     12346763      3.83%     78.36% # Class of committed instruction
system.switch_cpus3.commit.committedInstType_0::SimdFloatDiv      1085060      0.34%     78.70% # Class of committed instruction
system.switch_cpus3.commit.committedInstType_0::SimdFloatMisc            0      0.00%     78.70% # Class of committed instruction
system.switch_cpus3.commit.committedInstType_0::SimdFloatMult      5924725      1.84%     80.54% # Class of committed instruction
system.switch_cpus3.commit.committedInstType_0::SimdFloatMultAcc            0      0.00%     80.54% # Class of committed instruction
system.switch_cpus3.commit.committedInstType_0::SimdFloatSqrt       217013      0.07%     80.60% # Class of committed instruction
system.switch_cpus3.commit.committedInstType_0::SimdReduceAdd            0      0.00%     80.60% # Class of committed instruction
system.switch_cpus3.commit.committedInstType_0::SimdReduceAlu            0      0.00%     80.60% # Class of committed instruction
system.switch_cpus3.commit.committedInstType_0::SimdReduceCmp            0      0.00%     80.60% # Class of committed instruction
system.switch_cpus3.commit.committedInstType_0::SimdFloatReduceAdd            0      0.00%     80.60% # Class of committed instruction
system.switch_cpus3.commit.committedInstType_0::SimdFloatReduceCmp            0      0.00%     80.60% # Class of committed instruction
system.switch_cpus3.commit.committedInstType_0::SimdAes            0      0.00%     80.60% # Class of committed instruction
system.switch_cpus3.commit.committedInstType_0::SimdAesMix            0      0.00%     80.60% # Class of committed instruction
system.switch_cpus3.commit.committedInstType_0::SimdSha1Hash            0      0.00%     80.60% # Class of committed instruction
system.switch_cpus3.commit.committedInstType_0::SimdSha1Hash2            0      0.00%     80.60% # Class of committed instruction
system.switch_cpus3.commit.committedInstType_0::SimdSha256Hash            0      0.00%     80.60% # Class of committed instruction
system.switch_cpus3.commit.committedInstType_0::SimdSha256Hash2            0      0.00%     80.60% # Class of committed instruction
system.switch_cpus3.commit.committedInstType_0::SimdShaSigma2            0      0.00%     80.60% # Class of committed instruction
system.switch_cpus3.commit.committedInstType_0::SimdShaSigma3            0      0.00%     80.60% # Class of committed instruction
system.switch_cpus3.commit.committedInstType_0::SimdPredAlu            0      0.00%     80.60% # Class of committed instruction
system.switch_cpus3.commit.committedInstType_0::MemRead     24146440      7.48%     88.09% # Class of committed instruction
system.switch_cpus3.commit.committedInstType_0::MemWrite     12232073      3.79%     91.88% # Class of committed instruction
system.switch_cpus3.commit.committedInstType_0::FloatMemRead     20153609      6.24%     98.12% # Class of committed instruction
system.switch_cpus3.commit.committedInstType_0::FloatMemWrite      6065325      1.88%    100.00% # Class of committed instruction
system.switch_cpus3.commit.committedInstType_0::IprAccess            0      0.00%    100.00% # Class of committed instruction
system.switch_cpus3.commit.committedInstType_0::InstPrefetch            0      0.00%    100.00% # Class of committed instruction
system.switch_cpus3.commit.committedInstType_0::total    322733358                       # Class of committed instruction
system.switch_cpus3.commit.commitEligibleSamples     28536697                       # number cycles where commit BW limit reached
system.switch_cpus3.decode.idleCycles         5047724                       # Number of cycles decode is idle
system.switch_cpus3.decode.blockedCycles     25915089                       # Number of cycles decode is blocked
system.switch_cpus3.decode.runCycles         50421945                       # Number of cycles decode is running
system.switch_cpus3.decode.unblockCycles      4858625                       # Number of cycles decode is unblocking
system.switch_cpus3.decode.squashCycles        501935                       # Number of cycles decode is squashing
system.switch_cpus3.decode.branchResolved     17997292                       # Number of times decode resolved a  branch
system.switch_cpus3.decode.branchMispred          288                       # Number of times decode detected a branch misprediction
system.switch_cpus3.decode.decodedInsts     354432272                       # Number of instructions handled by decode
system.switch_cpus3.decode.squashedInsts          442                       # Number of squashed instructions handled by decode
system.switch_cpus3.dtb.rdAccesses           45558564                       # TLB accesses on read requests
system.switch_cpus3.dtb.wrAccesses           18474583                       # TLB accesses on write requests
system.switch_cpus3.dtb.rdMisses                28569                       # TLB misses on read requests
system.switch_cpus3.dtb.wrMisses                  274                       # TLB misses on write requests
system.switch_cpus3.dtb.walker.power_state.pwrStateResidencyTicks::UNDEFINED 15680170111356                       # Cumulative time (in ticks) in various power states
system.switch_cpus3.fetch.icacheStallCycles       402532                       # Number of cycles fetch is stalled on an Icache miss
system.switch_cpus3.fetch.insts             198905580                       # Number of instructions fetch has processed
system.switch_cpus3.fetch.branches           35538064                       # Number of branches that fetch encountered
system.switch_cpus3.fetch.predictedBranches     22427858                       # Number of branches that fetch has predicted taken
system.switch_cpus3.fetch.cycles             85840572                       # Number of cycles fetch has run and was not squashing or blocked
system.switch_cpus3.fetch.squashCycles        1004444                       # Number of cycles fetch has spent squashing
system.switch_cpus3.fetch.cacheLines         29795905                       # Number of cache lines fetched
system.switch_cpus3.fetch.icacheSquashes          192                       # Number of outstanding Icache misses that were squashed
system.switch_cpus3.fetch.nisnDist::samples     86745326                       # Number of instructions fetched each cycle (Total)
system.switch_cpus3.fetch.nisnDist::mean     4.141151                       # Number of instructions fetched each cycle (Total)
system.switch_cpus3.fetch.nisnDist::stdev     3.383394                       # Number of instructions fetched each cycle (Total)
system.switch_cpus3.fetch.nisnDist::underflows            0      0.00%      0.00% # Number of instructions fetched each cycle (Total)
system.switch_cpus3.fetch.nisnDist::0        24948147     28.76%     28.76% # Number of instructions fetched each cycle (Total)
system.switch_cpus3.fetch.nisnDist::1         4188021      4.83%     33.59% # Number of instructions fetched each cycle (Total)
system.switch_cpus3.fetch.nisnDist::2         5064852      5.84%     39.43% # Number of instructions fetched each cycle (Total)
system.switch_cpus3.fetch.nisnDist::3         5945922      6.85%     46.28% # Number of instructions fetched each cycle (Total)
system.switch_cpus3.fetch.nisnDist::4         6510986      7.51%     53.79% # Number of instructions fetched each cycle (Total)
system.switch_cpus3.fetch.nisnDist::5         3705155      4.27%     58.06% # Number of instructions fetched each cycle (Total)
system.switch_cpus3.fetch.nisnDist::6         2873788      3.31%     61.37% # Number of instructions fetched each cycle (Total)
system.switch_cpus3.fetch.nisnDist::7         2810061      3.24%     64.61% # Number of instructions fetched each cycle (Total)
system.switch_cpus3.fetch.nisnDist::8        30698394     35.39%    100.00% # Number of instructions fetched each cycle (Total)
system.switch_cpus3.fetch.nisnDist::overflows            0      0.00%    100.00% # Number of instructions fetched each cycle (Total)
system.switch_cpus3.fetch.nisnDist::min_value            0                       # Number of instructions fetched each cycle (Total)
system.switch_cpus3.fetch.nisnDist::max_value            8                       # Number of instructions fetched each cycle (Total)
system.switch_cpus3.fetch.nisnDist::total     86745326                       # Number of instructions fetched each cycle (Total)
system.switch_cpus3.fetch.branchRate         0.409303                       # Number of branch fetches per cycle
system.switch_cpus3.fetch.rate               2.290856                       # Number of inst fetches per cycle
system.switch_cpus3.itb.rdAccesses                  0                       # TLB accesses on read requests
system.switch_cpus3.itb.wrAccesses           29795905                       # TLB accesses on write requests
system.switch_cpus3.itb.rdMisses                    0                       # TLB misses on read requests
system.switch_cpus3.itb.wrMisses                   26                       # TLB misses on write requests
system.switch_cpus3.itb.walker.power_state.pwrStateResidencyTicks::UNDEFINED 15680170111356                       # Cumulative time (in ticks) in various power states
system.switch_cpus3.lsq0.forwLoads            9842696                       # Number of loads that had data forwarded from stores
system.switch_cpus3.lsq0.squashedLoads        2312697                       # Number of loads squashed
system.switch_cpus3.lsq0.ignoredResponses           14                       # Number of memory responses ignored because the instruction is squashed
system.switch_cpus3.lsq0.memOrderViolation         5542                       # Number of memory ordering violations
system.switch_cpus3.lsq0.squashedStores        992040                       # Number of stores squashed
system.switch_cpus3.lsq0.rescheduledLoads          999                       # Number of loads that were rescheduled
system.switch_cpus3.lsq0.blockedByCache             1                       # Number of times an access to memory failed due to the cache being blocked
system.switch_cpus3.power_state.pwrStateResidencyTicks::OFF  28913033691                       # Cumulative time (in ticks) in various power states
system.switch_cpus3.rename.squashCycles        501935                       # Number of cycles rename is squashing
system.switch_cpus3.rename.idleCycles         7076556                       # Number of cycles rename is idle
system.switch_cpus3.rename.blockCycles       11419117                       # Number of cycles rename is blocking
system.switch_cpus3.rename.serializeStallCycles          154                       # count of cycles rename stalledfor serializing inst
system.switch_cpus3.rename.runCycles         53107561                       # Number of cycles rename is running
system.switch_cpus3.rename.unblockCycles     14639984                       # Number of cycles rename is unblocking
system.switch_cpus3.rename.renamedInsts     351617833                       # Number of instructions processed by rename
system.switch_cpus3.rename.ROBFullEvents        65771                       # Number of times rename has blocked due to ROB full
system.switch_cpus3.rename.IQFullEvents       4628050                       # Number of times rename has blocked due to IQ full
system.switch_cpus3.rename.LQFullEvents       8747106                       # Number of times rename has blocked due to LQ full
system.switch_cpus3.rename.SQFullEvents         83983                       # Number of times rename has blocked due to SQ full
system.switch_cpus3.rename.renamedOperands    386159957                       # Number of destination operands rename has renamed
system.switch_cpus3.rename.lookups          875553795                       # Number of register rename lookups that rename has made
system.switch_cpus3.rename.intLookups       389568060                       # Number of integer rename lookups
system.switch_cpus3.rename.fpLookups        132238021                       # Number of floating rename lookups
system.switch_cpus3.rename.committedMaps    350657896                       # Number of HB maps that are committed
system.switch_cpus3.rename.undoneMaps        35501971                       # Number of HB maps that are undone due to squashing
system.switch_cpus3.rename.serializing             16                       # count of serializing insts renamed
system.switch_cpus3.rename.tempSerializing           16                       # count of temporary serializing insts renamed
system.switch_cpus3.rename.skidInsts         18771253                       # count of insts added to the skid buffer
system.switch_cpus3.rob.reads               400914410                       # The number of ROB reads
system.switch_cpus3.rob.writes              694780689                       # The number of ROB writes
system.switch_cpus3.thread0.numInsts        177867393                       # Number of Instructions committed
system.switch_cpus3.thread0.numOps          322733358                       # Number of Ops committed
system.switch_cpus3.thread0.numMemRefs              0                       # Number of Memory References
system.voltage_domain.voltage                       1                       # Voltage in Volts

---------- End Simulation Statistics   ----------
