
---------- Begin Simulation Statistics ----------
final_tick                               16944239184282                       # Number of ticks from beginning of simulation (restored from checkpoints and never reset)
host_inst_rate                                 194396                       # Simulator instruction rate (inst/s)
host_mem_usage                               17128436                       # Number of bytes of host memory used
host_op_rate                                   296327                       # Simulator op (including micro ops) rate (op/s)
host_seconds                                  5141.14                       # Real time elapsed on the host
host_tick_rate                               10179909                       # Simulator tick rate (ticks/s)
sim_freq                                 1000000000000                       # Frequency of simulated ticks
sim_insts                                   999416221                       # Number of instructions simulated
sim_ops                                    1523458353                       # Number of ops (including micro ops) simulated
sim_seconds                                  0.052336                       # Number of seconds simulated
sim_ticks                                 52336361583                       # Number of ticks simulated
system.cpu0.Branches                                3                       # Number of branches fetched
system.cpu0.committedInsts                         15                       # Number of instructions committed
system.cpu0.committedOps                           25                       # Number of ops (including micro ops) committed
system.cpu0.idle_fraction                           0                       # Percentage of idle cycles
system.cpu0.l2bus.snoop_filter.hit_multi_requests            0                       # Number of requests hitting in the snoop filter with multiple (>1) holders of the requested data.
system.cpu0.l2bus.snoop_filter.hit_multi_snoops            0                       # Number of snoops hitting in the snoop filter with multiple (>1) holders of the requested data.
system.cpu0.l2bus.snoop_filter.hit_single_requests      2944961                       # Number of requests hitting in the snoop filter with a single holder of the requested data.
system.cpu0.l2bus.snoop_filter.hit_single_snoops         7903                       # Number of snoops hitting in the snoop filter with a single holder of the requested data.
system.cpu0.l2bus.snoop_filter.tot_requests      5532727                       # Total number of requests made to the snoop filter.
system.cpu0.l2bus.snoop_filter.tot_snoops         7903                       # Total number of snoops made to the snoop filter.
system.cpu0.mmucache.mmubus.snoop_filter.hit_multi_requests            0                       # Number of requests hitting in the snoop filter with multiple (>1) holders of the requested data.
system.cpu0.mmucache.mmubus.snoop_filter.hit_multi_snoops            0                       # Number of snoops hitting in the snoop filter with multiple (>1) holders of the requested data.
system.cpu0.mmucache.mmubus.snoop_filter.hit_single_requests            0                       # Number of requests hitting in the snoop filter with a single holder of the requested data.
system.cpu0.mmucache.mmubus.snoop_filter.hit_single_snoops            0                       # Number of snoops hitting in the snoop filter with a single holder of the requested data.
system.cpu0.mmucache.mmubus.snoop_filter.tot_requests            0                       # Total number of requests made to the snoop filter.
system.cpu0.mmucache.mmubus.snoop_filter.tot_snoops            0                       # Total number of snoops made to the snoop filter.
system.cpu0.not_idle_fraction                       1                       # Percentage of non-idle cycles
system.cpu0.numCycles                              32                       # number of cpu cycles simulated
system.cpu0.numWorkItemsCompleted                   0                       # number of work items this cpu completed
system.cpu0.numWorkItemsStarted                     0                       # number of work items this cpu started
system.cpu0.num_busy_cycles                        32                       # Number of busy cycles
system.cpu0.num_cc_register_reads                  17                       # number of times the CC registers were read
system.cpu0.num_cc_register_writes                  6                       # number of times the CC registers were written
system.cpu0.num_conditional_control_insts            3                       # number of instructions that are conditional controls
system.cpu0.num_fp_alu_accesses                    10                       # Number of float alu accesses
system.cpu0.num_fp_insts                           10                       # number of float instructions
system.cpu0.num_fp_register_reads                  15                       # number of times the floating registers were read
system.cpu0.num_fp_register_writes                  7                       # number of times the floating registers were written
system.cpu0.num_func_calls                          0                       # number of times a function call or return occured
system.cpu0.num_idle_cycles                         0                       # Number of idle cycles
system.cpu0.num_int_alu_accesses                   21                       # Number of integer alu accesses
system.cpu0.num_int_insts                          21                       # number of integer instructions
system.cpu0.num_int_register_reads                 42                       # number of times the integer registers were read
system.cpu0.num_int_register_writes                12                       # number of times the integer registers were written
system.cpu0.num_load_insts                          5                       # Number of load instructions
system.cpu0.num_mem_refs                            8                       # number of memory refs
system.cpu0.num_store_insts                         3                       # Number of store instructions
system.cpu0.num_vec_alu_accesses                    0                       # Number of vector alu accesses
system.cpu0.num_vec_insts                           0                       # number of vector instructions
system.cpu0.num_vec_register_reads                  0                       # number of times the vector registers were read
system.cpu0.num_vec_register_writes                 0                       # number of times the vector registers were written
system.cpu0.op_class::No_OpClass                    0      0.00%      0.00% # Class of executed instruction
system.cpu0.op_class::IntAlu                       13     52.00%     52.00% # Class of executed instruction
system.cpu0.op_class::IntMult                       0      0.00%     52.00% # Class of executed instruction
system.cpu0.op_class::IntDiv                        0      0.00%     52.00% # Class of executed instruction
system.cpu0.op_class::FloatAdd                      0      0.00%     52.00% # Class of executed instruction
system.cpu0.op_class::FloatCmp                      0      0.00%     52.00% # Class of executed instruction
system.cpu0.op_class::FloatCvt                      0      0.00%     52.00% # Class of executed instruction
system.cpu0.op_class::FloatMult                     0      0.00%     52.00% # Class of executed instruction
system.cpu0.op_class::FloatMultAcc                  0      0.00%     52.00% # Class of executed instruction
system.cpu0.op_class::FloatDiv                      0      0.00%     52.00% # Class of executed instruction
system.cpu0.op_class::FloatMisc                     0      0.00%     52.00% # Class of executed instruction
system.cpu0.op_class::FloatSqrt                     0      0.00%     52.00% # Class of executed instruction
system.cpu0.op_class::SimdAdd                       0      0.00%     52.00% # Class of executed instruction
system.cpu0.op_class::SimdAddAcc                    0      0.00%     52.00% # Class of executed instruction
system.cpu0.op_class::SimdAlu                       0      0.00%     52.00% # Class of executed instruction
system.cpu0.op_class::SimdCmp                       0      0.00%     52.00% # Class of executed instruction
system.cpu0.op_class::SimdCvt                       0      0.00%     52.00% # Class of executed instruction
system.cpu0.op_class::SimdMisc                      0      0.00%     52.00% # Class of executed instruction
system.cpu0.op_class::SimdMult                      0      0.00%     52.00% # Class of executed instruction
system.cpu0.op_class::SimdMultAcc                   0      0.00%     52.00% # Class of executed instruction
system.cpu0.op_class::SimdShift                     0      0.00%     52.00% # Class of executed instruction
system.cpu0.op_class::SimdShiftAcc                  0      0.00%     52.00% # Class of executed instruction
system.cpu0.op_class::SimdDiv                       0      0.00%     52.00% # Class of executed instruction
system.cpu0.op_class::SimdSqrt                      0      0.00%     52.00% # Class of executed instruction
system.cpu0.op_class::SimdFloatAdd                  3     12.00%     64.00% # Class of executed instruction
system.cpu0.op_class::SimdFloatAlu                  0      0.00%     64.00% # Class of executed instruction
system.cpu0.op_class::SimdFloatCmp                  0      0.00%     64.00% # Class of executed instruction
system.cpu0.op_class::SimdFloatCvt                  0      0.00%     64.00% # Class of executed instruction
system.cpu0.op_class::SimdFloatDiv                  0      0.00%     64.00% # Class of executed instruction
system.cpu0.op_class::SimdFloatMisc                 0      0.00%     64.00% # Class of executed instruction
system.cpu0.op_class::SimdFloatMult                 1      4.00%     68.00% # Class of executed instruction
system.cpu0.op_class::SimdFloatMultAcc              0      0.00%     68.00% # Class of executed instruction
system.cpu0.op_class::SimdFloatSqrt                 0      0.00%     68.00% # Class of executed instruction
system.cpu0.op_class::SimdReduceAdd                 0      0.00%     68.00% # Class of executed instruction
system.cpu0.op_class::SimdReduceAlu                 0      0.00%     68.00% # Class of executed instruction
system.cpu0.op_class::SimdReduceCmp                 0      0.00%     68.00% # Class of executed instruction
system.cpu0.op_class::SimdFloatReduceAdd            0      0.00%     68.00% # Class of executed instruction
system.cpu0.op_class::SimdFloatReduceCmp            0      0.00%     68.00% # Class of executed instruction
system.cpu0.op_class::SimdAes                       0      0.00%     68.00% # Class of executed instruction
system.cpu0.op_class::SimdAesMix                    0      0.00%     68.00% # Class of executed instruction
system.cpu0.op_class::SimdSha1Hash                  0      0.00%     68.00% # Class of executed instruction
system.cpu0.op_class::SimdSha1Hash2                 0      0.00%     68.00% # Class of executed instruction
system.cpu0.op_class::SimdSha256Hash                0      0.00%     68.00% # Class of executed instruction
system.cpu0.op_class::SimdSha256Hash2               0      0.00%     68.00% # Class of executed instruction
system.cpu0.op_class::SimdShaSigma2                 0      0.00%     68.00% # Class of executed instruction
system.cpu0.op_class::SimdShaSigma3                 0      0.00%     68.00% # Class of executed instruction
system.cpu0.op_class::SimdPredAlu                   0      0.00%     68.00% # Class of executed instruction
system.cpu0.op_class::MemRead                       2      8.00%     76.00% # Class of executed instruction
system.cpu0.op_class::MemWrite                      0      0.00%     76.00% # Class of executed instruction
system.cpu0.op_class::FloatMemRead                  3     12.00%     88.00% # Class of executed instruction
system.cpu0.op_class::FloatMemWrite                 3     12.00%    100.00% # Class of executed instruction
system.cpu0.op_class::IprAccess                     0      0.00%    100.00% # Class of executed instruction
system.cpu0.op_class::InstPrefetch                  0      0.00%    100.00% # Class of executed instruction
system.cpu0.op_class::total                        25                       # Class of executed instruction
system.cpu0.workload.numSyscalls                    0                       # Number of system calls
system.cpu1.Branches                                3                       # Number of branches fetched
system.cpu1.committedInsts                         15                       # Number of instructions committed
system.cpu1.committedOps                           25                       # Number of ops (including micro ops) committed
system.cpu1.idle_fraction                           0                       # Percentage of idle cycles
system.cpu1.l2bus.snoop_filter.hit_multi_requests            0                       # Number of requests hitting in the snoop filter with multiple (>1) holders of the requested data.
system.cpu1.l2bus.snoop_filter.hit_multi_snoops            0                       # Number of snoops hitting in the snoop filter with multiple (>1) holders of the requested data.
system.cpu1.l2bus.snoop_filter.hit_single_requests      2945221                       # Number of requests hitting in the snoop filter with a single holder of the requested data.
system.cpu1.l2bus.snoop_filter.hit_single_snoops         7934                       # Number of snoops hitting in the snoop filter with a single holder of the requested data.
system.cpu1.l2bus.snoop_filter.tot_requests      5531732                       # Total number of requests made to the snoop filter.
system.cpu1.l2bus.snoop_filter.tot_snoops         7934                       # Total number of snoops made to the snoop filter.
system.cpu1.mmucache.mmubus.snoop_filter.hit_multi_requests            0                       # Number of requests hitting in the snoop filter with multiple (>1) holders of the requested data.
system.cpu1.mmucache.mmubus.snoop_filter.hit_multi_snoops            0                       # Number of snoops hitting in the snoop filter with multiple (>1) holders of the requested data.
system.cpu1.mmucache.mmubus.snoop_filter.hit_single_requests            0                       # Number of requests hitting in the snoop filter with a single holder of the requested data.
system.cpu1.mmucache.mmubus.snoop_filter.hit_single_snoops            0                       # Number of snoops hitting in the snoop filter with a single holder of the requested data.
system.cpu1.mmucache.mmubus.snoop_filter.tot_requests            0                       # Total number of requests made to the snoop filter.
system.cpu1.mmucache.mmubus.snoop_filter.tot_snoops            0                       # Total number of snoops made to the snoop filter.
system.cpu1.not_idle_fraction                       1                       # Percentage of non-idle cycles
system.cpu1.numCycles                              32                       # number of cpu cycles simulated
system.cpu1.numWorkItemsCompleted                   0                       # number of work items this cpu completed
system.cpu1.numWorkItemsStarted                     0                       # number of work items this cpu started
system.cpu1.num_busy_cycles                        32                       # Number of busy cycles
system.cpu1.num_cc_register_reads                  17                       # number of times the CC registers were read
system.cpu1.num_cc_register_writes                  6                       # number of times the CC registers were written
system.cpu1.num_conditional_control_insts            3                       # number of instructions that are conditional controls
system.cpu1.num_fp_alu_accesses                    10                       # Number of float alu accesses
system.cpu1.num_fp_insts                           10                       # number of float instructions
system.cpu1.num_fp_register_reads                  15                       # number of times the floating registers were read
system.cpu1.num_fp_register_writes                  7                       # number of times the floating registers were written
system.cpu1.num_func_calls                          0                       # number of times a function call or return occured
system.cpu1.num_idle_cycles                         0                       # Number of idle cycles
system.cpu1.num_int_alu_accesses                   21                       # Number of integer alu accesses
system.cpu1.num_int_insts                          21                       # number of integer instructions
system.cpu1.num_int_register_reads                 42                       # number of times the integer registers were read
system.cpu1.num_int_register_writes                12                       # number of times the integer registers were written
system.cpu1.num_load_insts                          5                       # Number of load instructions
system.cpu1.num_mem_refs                            8                       # number of memory refs
system.cpu1.num_store_insts                         3                       # Number of store instructions
system.cpu1.num_vec_alu_accesses                    0                       # Number of vector alu accesses
system.cpu1.num_vec_insts                           0                       # number of vector instructions
system.cpu1.num_vec_register_reads                  0                       # number of times the vector registers were read
system.cpu1.num_vec_register_writes                 0                       # number of times the vector registers were written
system.cpu1.op_class::No_OpClass                    0      0.00%      0.00% # Class of executed instruction
system.cpu1.op_class::IntAlu                       13     52.00%     52.00% # Class of executed instruction
system.cpu1.op_class::IntMult                       0      0.00%     52.00% # Class of executed instruction
system.cpu1.op_class::IntDiv                        0      0.00%     52.00% # Class of executed instruction
system.cpu1.op_class::FloatAdd                      0      0.00%     52.00% # Class of executed instruction
system.cpu1.op_class::FloatCmp                      0      0.00%     52.00% # Class of executed instruction
system.cpu1.op_class::FloatCvt                      0      0.00%     52.00% # Class of executed instruction
system.cpu1.op_class::FloatMult                     0      0.00%     52.00% # Class of executed instruction
system.cpu1.op_class::FloatMultAcc                  0      0.00%     52.00% # Class of executed instruction
system.cpu1.op_class::FloatDiv                      0      0.00%     52.00% # Class of executed instruction
system.cpu1.op_class::FloatMisc                     0      0.00%     52.00% # Class of executed instruction
system.cpu1.op_class::FloatSqrt                     0      0.00%     52.00% # Class of executed instruction
system.cpu1.op_class::SimdAdd                       0      0.00%     52.00% # Class of executed instruction
system.cpu1.op_class::SimdAddAcc                    0      0.00%     52.00% # Class of executed instruction
system.cpu1.op_class::SimdAlu                       0      0.00%     52.00% # Class of executed instruction
system.cpu1.op_class::SimdCmp                       0      0.00%     52.00% # Class of executed instruction
system.cpu1.op_class::SimdCvt                       0      0.00%     52.00% # Class of executed instruction
system.cpu1.op_class::SimdMisc                      0      0.00%     52.00% # Class of executed instruction
system.cpu1.op_class::SimdMult                      0      0.00%     52.00% # Class of executed instruction
system.cpu1.op_class::SimdMultAcc                   0      0.00%     52.00% # Class of executed instruction
system.cpu1.op_class::SimdShift                     0      0.00%     52.00% # Class of executed instruction
system.cpu1.op_class::SimdShiftAcc                  0      0.00%     52.00% # Class of executed instruction
system.cpu1.op_class::SimdDiv                       0      0.00%     52.00% # Class of executed instruction
system.cpu1.op_class::SimdSqrt                      0      0.00%     52.00% # Class of executed instruction
system.cpu1.op_class::SimdFloatAdd                  3     12.00%     64.00% # Class of executed instruction
system.cpu1.op_class::SimdFloatAlu                  0      0.00%     64.00% # Class of executed instruction
system.cpu1.op_class::SimdFloatCmp                  0      0.00%     64.00% # Class of executed instruction
system.cpu1.op_class::SimdFloatCvt                  0      0.00%     64.00% # Class of executed instruction
system.cpu1.op_class::SimdFloatDiv                  0      0.00%     64.00% # Class of executed instruction
system.cpu1.op_class::SimdFloatMisc                 0      0.00%     64.00% # Class of executed instruction
system.cpu1.op_class::SimdFloatMult                 1      4.00%     68.00% # Class of executed instruction
system.cpu1.op_class::SimdFloatMultAcc              0      0.00%     68.00% # Class of executed instruction
system.cpu1.op_class::SimdFloatSqrt                 0      0.00%     68.00% # Class of executed instruction
system.cpu1.op_class::SimdReduceAdd                 0      0.00%     68.00% # Class of executed instruction
system.cpu1.op_class::SimdReduceAlu                 0      0.00%     68.00% # Class of executed instruction
system.cpu1.op_class::SimdReduceCmp                 0      0.00%     68.00% # Class of executed instruction
system.cpu1.op_class::SimdFloatReduceAdd            0      0.00%     68.00% # Class of executed instruction
system.cpu1.op_class::SimdFloatReduceCmp            0      0.00%     68.00% # Class of executed instruction
system.cpu1.op_class::SimdAes                       0      0.00%     68.00% # Class of executed instruction
system.cpu1.op_class::SimdAesMix                    0      0.00%     68.00% # Class of executed instruction
system.cpu1.op_class::SimdSha1Hash                  0      0.00%     68.00% # Class of executed instruction
system.cpu1.op_class::SimdSha1Hash2                 0      0.00%     68.00% # Class of executed instruction
system.cpu1.op_class::SimdSha256Hash                0      0.00%     68.00% # Class of executed instruction
system.cpu1.op_class::SimdSha256Hash2               0      0.00%     68.00% # Class of executed instruction
system.cpu1.op_class::SimdShaSigma2                 0      0.00%     68.00% # Class of executed instruction
system.cpu1.op_class::SimdShaSigma3                 0      0.00%     68.00% # Class of executed instruction
system.cpu1.op_class::SimdPredAlu                   0      0.00%     68.00% # Class of executed instruction
system.cpu1.op_class::MemRead                       2      8.00%     76.00% # Class of executed instruction
system.cpu1.op_class::MemWrite                      0      0.00%     76.00% # Class of executed instruction
system.cpu1.op_class::FloatMemRead                  3     12.00%     88.00% # Class of executed instruction
system.cpu1.op_class::FloatMemWrite                 3     12.00%    100.00% # Class of executed instruction
system.cpu1.op_class::IprAccess                     0      0.00%    100.00% # Class of executed instruction
system.cpu1.op_class::InstPrefetch                  0      0.00%    100.00% # Class of executed instruction
system.cpu1.op_class::total                        25                       # Class of executed instruction
system.cpu1.workload.numSyscalls                    0                       # Number of system calls
system.cpu2.Branches                                3                       # Number of branches fetched
system.cpu2.committedInsts                         15                       # Number of instructions committed
system.cpu2.committedOps                           25                       # Number of ops (including micro ops) committed
system.cpu2.idle_fraction                           0                       # Percentage of idle cycles
system.cpu2.l2bus.snoop_filter.hit_multi_requests            0                       # Number of requests hitting in the snoop filter with multiple (>1) holders of the requested data.
system.cpu2.l2bus.snoop_filter.hit_multi_snoops            0                       # Number of snoops hitting in the snoop filter with multiple (>1) holders of the requested data.
system.cpu2.l2bus.snoop_filter.hit_single_requests      2946296                       # Number of requests hitting in the snoop filter with a single holder of the requested data.
system.cpu2.l2bus.snoop_filter.hit_single_snoops         7906                       # Number of snoops hitting in the snoop filter with a single holder of the requested data.
system.cpu2.l2bus.snoop_filter.tot_requests      5535088                       # Total number of requests made to the snoop filter.
system.cpu2.l2bus.snoop_filter.tot_snoops         7906                       # Total number of snoops made to the snoop filter.
system.cpu2.mmucache.mmubus.snoop_filter.hit_multi_requests            0                       # Number of requests hitting in the snoop filter with multiple (>1) holders of the requested data.
system.cpu2.mmucache.mmubus.snoop_filter.hit_multi_snoops            0                       # Number of snoops hitting in the snoop filter with multiple (>1) holders of the requested data.
system.cpu2.mmucache.mmubus.snoop_filter.hit_single_requests            0                       # Number of requests hitting in the snoop filter with a single holder of the requested data.
system.cpu2.mmucache.mmubus.snoop_filter.hit_single_snoops            0                       # Number of snoops hitting in the snoop filter with a single holder of the requested data.
system.cpu2.mmucache.mmubus.snoop_filter.tot_requests            0                       # Total number of requests made to the snoop filter.
system.cpu2.mmucache.mmubus.snoop_filter.tot_snoops            0                       # Total number of snoops made to the snoop filter.
system.cpu2.not_idle_fraction                       1                       # Percentage of non-idle cycles
system.cpu2.numCycles                              32                       # number of cpu cycles simulated
system.cpu2.numWorkItemsCompleted                   0                       # number of work items this cpu completed
system.cpu2.numWorkItemsStarted                     0                       # number of work items this cpu started
system.cpu2.num_busy_cycles                        32                       # Number of busy cycles
system.cpu2.num_cc_register_reads                  17                       # number of times the CC registers were read
system.cpu2.num_cc_register_writes                  6                       # number of times the CC registers were written
system.cpu2.num_conditional_control_insts            3                       # number of instructions that are conditional controls
system.cpu2.num_fp_alu_accesses                    10                       # Number of float alu accesses
system.cpu2.num_fp_insts                           10                       # number of float instructions
system.cpu2.num_fp_register_reads                  15                       # number of times the floating registers were read
system.cpu2.num_fp_register_writes                  7                       # number of times the floating registers were written
system.cpu2.num_func_calls                          0                       # number of times a function call or return occured
system.cpu2.num_idle_cycles                         0                       # Number of idle cycles
system.cpu2.num_int_alu_accesses                   21                       # Number of integer alu accesses
system.cpu2.num_int_insts                          21                       # number of integer instructions
system.cpu2.num_int_register_reads                 42                       # number of times the integer registers were read
system.cpu2.num_int_register_writes                12                       # number of times the integer registers were written
system.cpu2.num_load_insts                          5                       # Number of load instructions
system.cpu2.num_mem_refs                            8                       # number of memory refs
system.cpu2.num_store_insts                         3                       # Number of store instructions
system.cpu2.num_vec_alu_accesses                    0                       # Number of vector alu accesses
system.cpu2.num_vec_insts                           0                       # number of vector instructions
system.cpu2.num_vec_register_reads                  0                       # number of times the vector registers were read
system.cpu2.num_vec_register_writes                 0                       # number of times the vector registers were written
system.cpu2.op_class::No_OpClass                    0      0.00%      0.00% # Class of executed instruction
system.cpu2.op_class::IntAlu                       13     52.00%     52.00% # Class of executed instruction
system.cpu2.op_class::IntMult                       0      0.00%     52.00% # Class of executed instruction
system.cpu2.op_class::IntDiv                        0      0.00%     52.00% # Class of executed instruction
system.cpu2.op_class::FloatAdd                      0      0.00%     52.00% # Class of executed instruction
system.cpu2.op_class::FloatCmp                      0      0.00%     52.00% # Class of executed instruction
system.cpu2.op_class::FloatCvt                      0      0.00%     52.00% # Class of executed instruction
system.cpu2.op_class::FloatMult                     0      0.00%     52.00% # Class of executed instruction
system.cpu2.op_class::FloatMultAcc                  0      0.00%     52.00% # Class of executed instruction
system.cpu2.op_class::FloatDiv                      0      0.00%     52.00% # Class of executed instruction
system.cpu2.op_class::FloatMisc                     0      0.00%     52.00% # Class of executed instruction
system.cpu2.op_class::FloatSqrt                     0      0.00%     52.00% # Class of executed instruction
system.cpu2.op_class::SimdAdd                       0      0.00%     52.00% # Class of executed instruction
system.cpu2.op_class::SimdAddAcc                    0      0.00%     52.00% # Class of executed instruction
system.cpu2.op_class::SimdAlu                       0      0.00%     52.00% # Class of executed instruction
system.cpu2.op_class::SimdCmp                       0      0.00%     52.00% # Class of executed instruction
system.cpu2.op_class::SimdCvt                       0      0.00%     52.00% # Class of executed instruction
system.cpu2.op_class::SimdMisc                      0      0.00%     52.00% # Class of executed instruction
system.cpu2.op_class::SimdMult                      0      0.00%     52.00% # Class of executed instruction
system.cpu2.op_class::SimdMultAcc                   0      0.00%     52.00% # Class of executed instruction
system.cpu2.op_class::SimdShift                     0      0.00%     52.00% # Class of executed instruction
system.cpu2.op_class::SimdShiftAcc                  0      0.00%     52.00% # Class of executed instruction
system.cpu2.op_class::SimdDiv                       0      0.00%     52.00% # Class of executed instruction
system.cpu2.op_class::SimdSqrt                      0      0.00%     52.00% # Class of executed instruction
system.cpu2.op_class::SimdFloatAdd                  3     12.00%     64.00% # Class of executed instruction
system.cpu2.op_class::SimdFloatAlu                  0      0.00%     64.00% # Class of executed instruction
system.cpu2.op_class::SimdFloatCmp                  0      0.00%     64.00% # Class of executed instruction
system.cpu2.op_class::SimdFloatCvt                  0      0.00%     64.00% # Class of executed instruction
system.cpu2.op_class::SimdFloatDiv                  0      0.00%     64.00% # Class of executed instruction
system.cpu2.op_class::SimdFloatMisc                 0      0.00%     64.00% # Class of executed instruction
system.cpu2.op_class::SimdFloatMult                 1      4.00%     68.00% # Class of executed instruction
system.cpu2.op_class::SimdFloatMultAcc              0      0.00%     68.00% # Class of executed instruction
system.cpu2.op_class::SimdFloatSqrt                 0      0.00%     68.00% # Class of executed instruction
system.cpu2.op_class::SimdReduceAdd                 0      0.00%     68.00% # Class of executed instruction
system.cpu2.op_class::SimdReduceAlu                 0      0.00%     68.00% # Class of executed instruction
system.cpu2.op_class::SimdReduceCmp                 0      0.00%     68.00% # Class of executed instruction
system.cpu2.op_class::SimdFloatReduceAdd            0      0.00%     68.00% # Class of executed instruction
system.cpu2.op_class::SimdFloatReduceCmp            0      0.00%     68.00% # Class of executed instruction
system.cpu2.op_class::SimdAes                       0      0.00%     68.00% # Class of executed instruction
system.cpu2.op_class::SimdAesMix                    0      0.00%     68.00% # Class of executed instruction
system.cpu2.op_class::SimdSha1Hash                  0      0.00%     68.00% # Class of executed instruction
system.cpu2.op_class::SimdSha1Hash2                 0      0.00%     68.00% # Class of executed instruction
system.cpu2.op_class::SimdSha256Hash                0      0.00%     68.00% # Class of executed instruction
system.cpu2.op_class::SimdSha256Hash2               0      0.00%     68.00% # Class of executed instruction
system.cpu2.op_class::SimdShaSigma2                 0      0.00%     68.00% # Class of executed instruction
system.cpu2.op_class::SimdShaSigma3                 0      0.00%     68.00% # Class of executed instruction
system.cpu2.op_class::SimdPredAlu                   0      0.00%     68.00% # Class of executed instruction
system.cpu2.op_class::MemRead                       2      8.00%     76.00% # Class of executed instruction
system.cpu2.op_class::MemWrite                      0      0.00%     76.00% # Class of executed instruction
system.cpu2.op_class::FloatMemRead                  3     12.00%     88.00% # Class of executed instruction
system.cpu2.op_class::FloatMemWrite                 3     12.00%    100.00% # Class of executed instruction
system.cpu2.op_class::IprAccess                     0      0.00%    100.00% # Class of executed instruction
system.cpu2.op_class::InstPrefetch                  0      0.00%    100.00% # Class of executed instruction
system.cpu2.op_class::total                        25                       # Class of executed instruction
system.cpu2.workload.numSyscalls                    0                       # Number of system calls
system.cpu3.Branches                                3                       # Number of branches fetched
system.cpu3.committedInsts                         15                       # Number of instructions committed
system.cpu3.committedOps                           25                       # Number of ops (including micro ops) committed
system.cpu3.idle_fraction                           0                       # Percentage of idle cycles
system.cpu3.l2bus.snoop_filter.hit_multi_requests            0                       # Number of requests hitting in the snoop filter with multiple (>1) holders of the requested data.
system.cpu3.l2bus.snoop_filter.hit_multi_snoops            0                       # Number of snoops hitting in the snoop filter with multiple (>1) holders of the requested data.
system.cpu3.l2bus.snoop_filter.hit_single_requests      2944636                       # Number of requests hitting in the snoop filter with a single holder of the requested data.
system.cpu3.l2bus.snoop_filter.hit_single_snoops         7933                       # Number of snoops hitting in the snoop filter with a single holder of the requested data.
system.cpu3.l2bus.snoop_filter.tot_requests      5530698                       # Total number of requests made to the snoop filter.
system.cpu3.l2bus.snoop_filter.tot_snoops         7933                       # Total number of snoops made to the snoop filter.
system.cpu3.mmucache.mmubus.snoop_filter.hit_multi_requests            0                       # Number of requests hitting in the snoop filter with multiple (>1) holders of the requested data.
system.cpu3.mmucache.mmubus.snoop_filter.hit_multi_snoops            0                       # Number of snoops hitting in the snoop filter with multiple (>1) holders of the requested data.
system.cpu3.mmucache.mmubus.snoop_filter.hit_single_requests            0                       # Number of requests hitting in the snoop filter with a single holder of the requested data.
system.cpu3.mmucache.mmubus.snoop_filter.hit_single_snoops            0                       # Number of snoops hitting in the snoop filter with a single holder of the requested data.
system.cpu3.mmucache.mmubus.snoop_filter.tot_requests            0                       # Total number of requests made to the snoop filter.
system.cpu3.mmucache.mmubus.snoop_filter.tot_snoops            0                       # Total number of snoops made to the snoop filter.
system.cpu3.not_idle_fraction                       1                       # Percentage of non-idle cycles
system.cpu3.numCycles                              32                       # number of cpu cycles simulated
system.cpu3.numWorkItemsCompleted                   0                       # number of work items this cpu completed
system.cpu3.numWorkItemsStarted                     0                       # number of work items this cpu started
system.cpu3.num_busy_cycles                        32                       # Number of busy cycles
system.cpu3.num_cc_register_reads                  17                       # number of times the CC registers were read
system.cpu3.num_cc_register_writes                  6                       # number of times the CC registers were written
system.cpu3.num_conditional_control_insts            3                       # number of instructions that are conditional controls
system.cpu3.num_fp_alu_accesses                    10                       # Number of float alu accesses
system.cpu3.num_fp_insts                           10                       # number of float instructions
system.cpu3.num_fp_register_reads                  15                       # number of times the floating registers were read
system.cpu3.num_fp_register_writes                  7                       # number of times the floating registers were written
system.cpu3.num_func_calls                          0                       # number of times a function call or return occured
system.cpu3.num_idle_cycles                         0                       # Number of idle cycles
system.cpu3.num_int_alu_accesses                   21                       # Number of integer alu accesses
system.cpu3.num_int_insts                          21                       # number of integer instructions
system.cpu3.num_int_register_reads                 42                       # number of times the integer registers were read
system.cpu3.num_int_register_writes                12                       # number of times the integer registers were written
system.cpu3.num_load_insts                          5                       # Number of load instructions
system.cpu3.num_mem_refs                            8                       # number of memory refs
system.cpu3.num_store_insts                         3                       # Number of store instructions
system.cpu3.num_vec_alu_accesses                    0                       # Number of vector alu accesses
system.cpu3.num_vec_insts                           0                       # number of vector instructions
system.cpu3.num_vec_register_reads                  0                       # number of times the vector registers were read
system.cpu3.num_vec_register_writes                 0                       # number of times the vector registers were written
system.cpu3.op_class::No_OpClass                    0      0.00%      0.00% # Class of executed instruction
system.cpu3.op_class::IntAlu                       13     52.00%     52.00% # Class of executed instruction
system.cpu3.op_class::IntMult                       0      0.00%     52.00% # Class of executed instruction
system.cpu3.op_class::IntDiv                        0      0.00%     52.00% # Class of executed instruction
system.cpu3.op_class::FloatAdd                      0      0.00%     52.00% # Class of executed instruction
system.cpu3.op_class::FloatCmp                      0      0.00%     52.00% # Class of executed instruction
system.cpu3.op_class::FloatCvt                      0      0.00%     52.00% # Class of executed instruction
system.cpu3.op_class::FloatMult                     0      0.00%     52.00% # Class of executed instruction
system.cpu3.op_class::FloatMultAcc                  0      0.00%     52.00% # Class of executed instruction
system.cpu3.op_class::FloatDiv                      0      0.00%     52.00% # Class of executed instruction
system.cpu3.op_class::FloatMisc                     0      0.00%     52.00% # Class of executed instruction
system.cpu3.op_class::FloatSqrt                     0      0.00%     52.00% # Class of executed instruction
system.cpu3.op_class::SimdAdd                       0      0.00%     52.00% # Class of executed instruction
system.cpu3.op_class::SimdAddAcc                    0      0.00%     52.00% # Class of executed instruction
system.cpu3.op_class::SimdAlu                       0      0.00%     52.00% # Class of executed instruction
system.cpu3.op_class::SimdCmp                       0      0.00%     52.00% # Class of executed instruction
system.cpu3.op_class::SimdCvt                       0      0.00%     52.00% # Class of executed instruction
system.cpu3.op_class::SimdMisc                      0      0.00%     52.00% # Class of executed instruction
system.cpu3.op_class::SimdMult                      0      0.00%     52.00% # Class of executed instruction
system.cpu3.op_class::SimdMultAcc                   0      0.00%     52.00% # Class of executed instruction
system.cpu3.op_class::SimdShift                     0      0.00%     52.00% # Class of executed instruction
system.cpu3.op_class::SimdShiftAcc                  0      0.00%     52.00% # Class of executed instruction
system.cpu3.op_class::SimdDiv                       0      0.00%     52.00% # Class of executed instruction
system.cpu3.op_class::SimdSqrt                      0      0.00%     52.00% # Class of executed instruction
system.cpu3.op_class::SimdFloatAdd                  3     12.00%     64.00% # Class of executed instruction
system.cpu3.op_class::SimdFloatAlu                  0      0.00%     64.00% # Class of executed instruction
system.cpu3.op_class::SimdFloatCmp                  0      0.00%     64.00% # Class of executed instruction
system.cpu3.op_class::SimdFloatCvt                  0      0.00%     64.00% # Class of executed instruction
system.cpu3.op_class::SimdFloatDiv                  0      0.00%     64.00% # Class of executed instruction
system.cpu3.op_class::SimdFloatMisc                 0      0.00%     64.00% # Class of executed instruction
system.cpu3.op_class::SimdFloatMult                 1      4.00%     68.00% # Class of executed instruction
system.cpu3.op_class::SimdFloatMultAcc              0      0.00%     68.00% # Class of executed instruction
system.cpu3.op_class::SimdFloatSqrt                 0      0.00%     68.00% # Class of executed instruction
system.cpu3.op_class::SimdReduceAdd                 0      0.00%     68.00% # Class of executed instruction
system.cpu3.op_class::SimdReduceAlu                 0      0.00%     68.00% # Class of executed instruction
system.cpu3.op_class::SimdReduceCmp                 0      0.00%     68.00% # Class of executed instruction
system.cpu3.op_class::SimdFloatReduceAdd            0      0.00%     68.00% # Class of executed instruction
system.cpu3.op_class::SimdFloatReduceCmp            0      0.00%     68.00% # Class of executed instruction
system.cpu3.op_class::SimdAes                       0      0.00%     68.00% # Class of executed instruction
system.cpu3.op_class::SimdAesMix                    0      0.00%     68.00% # Class of executed instruction
system.cpu3.op_class::SimdSha1Hash                  0      0.00%     68.00% # Class of executed instruction
system.cpu3.op_class::SimdSha1Hash2                 0      0.00%     68.00% # Class of executed instruction
system.cpu3.op_class::SimdSha256Hash                0      0.00%     68.00% # Class of executed instruction
system.cpu3.op_class::SimdSha256Hash2               0      0.00%     68.00% # Class of executed instruction
system.cpu3.op_class::SimdShaSigma2                 0      0.00%     68.00% # Class of executed instruction
system.cpu3.op_class::SimdShaSigma3                 0      0.00%     68.00% # Class of executed instruction
system.cpu3.op_class::SimdPredAlu                   0      0.00%     68.00% # Class of executed instruction
system.cpu3.op_class::MemRead                       2      8.00%     76.00% # Class of executed instruction
system.cpu3.op_class::MemWrite                      0      0.00%     76.00% # Class of executed instruction
system.cpu3.op_class::FloatMemRead                  3     12.00%     88.00% # Class of executed instruction
system.cpu3.op_class::FloatMemWrite                 3     12.00%    100.00% # Class of executed instruction
system.cpu3.op_class::IprAccess                     0      0.00%    100.00% # Class of executed instruction
system.cpu3.op_class::InstPrefetch                  0      0.00%    100.00% # Class of executed instruction
system.cpu3.op_class::total                        25                       # Class of executed instruction
system.cpu3.workload.numSyscalls                    0                       # Number of system calls
system.l3bus.snoop_filter.hit_multi_requests            0                       # Number of requests hitting in the snoop filter with multiple (>1) holders of the requested data.
system.l3bus.snoop_filter.hit_multi_snoops            0                       # Number of snoops hitting in the snoop filter with multiple (>1) holders of the requested data.
system.l3bus.snoop_filter.hit_single_requests      4677711                       # Number of requests hitting in the snoop filter with a single holder of the requested data.
system.l3bus.snoop_filter.hit_single_snoops            0                       # Number of snoops hitting in the snoop filter with a single holder of the requested data.
system.l3bus.snoop_filter.tot_requests        9364188                       # Total number of requests made to the snoop filter.
system.l3bus.snoop_filter.tot_snoops                0                       # Total number of snoops made to the snoop filter.
system.membus.snoop_filter.hit_multi_requests            0                       # Number of requests hitting in the snoop filter with multiple (>1) holders of the requested data.
system.membus.snoop_filter.hit_multi_snoops            0                       # Number of snoops hitting in the snoop filter with multiple (>1) holders of the requested data.
system.membus.snoop_filter.hit_single_requests       479713                       # Number of requests hitting in the snoop filter with a single holder of the requested data.
system.membus.snoop_filter.hit_single_snoops            0                       # Number of snoops hitting in the snoop filter with a single holder of the requested data.
system.membus.snoop_filter.tot_requests       1029125                       # Total number of requests made to the snoop filter.
system.membus.snoop_filter.tot_snoops               0                       # Total number of snoops made to the snoop filter.
system.switch_cpus0.cc_regfile_reads        147045929                       # number of cc regfile reads
system.switch_cpus0.cc_regfile_writes        71449691                       # number of cc regfile writes
system.switch_cpus0.committedInsts          249901994                       # Number of Instructions Simulated
system.switch_cpus0.committedOps            380937012                       # Number of Ops (including micro ops) Simulated
system.switch_cpus0.cpi                      0.628911                       # CPI: Cycles Per Instruction
system.switch_cpus0.cpi_total                0.628911                       # CPI: Total CPI of All Threads
system.switch_cpus0.fp_regfile_reads        410672900                       # number of floating regfile reads
system.switch_cpus0.fp_regfile_writes       196337468                       # number of floating regfile writes
system.switch_cpus0.idleCycles                  14430                       # Total number of cycles that the CPU has spent unscheduled due to idling
system.switch_cpus0.iew.branchMispredicts       276267                       # Number of branch mispredicts detected at execute
system.switch_cpus0.iew.exec_branches        25796221                       # Number of branches executed
system.switch_cpus0.iew.exec_nop                    0                       # number of nop insts executed
system.switch_cpus0.iew.exec_rate            2.552141                       # Inst execution rate
system.switch_cpus0.iew.exec_refs            81068175                       # number of memory reference insts executed
system.switch_cpus0.iew.exec_stores          17184013                       # Number of stores executed
system.switch_cpus0.iew.exec_swp                    0                       # number of swp insts executed
system.switch_cpus0.iew.iewBlockCycles       47158912                       # Number of cycles IEW is blocking
system.switch_cpus0.iew.iewDispLoadInsts     64895580                       # Number of dispatched load instructions
system.switch_cpus0.iew.iewDispNonSpecInsts            0                       # Number of dispatched non-speculative instructions
system.switch_cpus0.iew.iewDispSquashedInsts          896                       # Number of squashed instructions skipped by dispatch
system.switch_cpus0.iew.iewDispStoreInsts     17762173                       # Number of dispatched store instructions
system.switch_cpus0.iew.iewDispatchedInsts    412092667                       # Number of instructions dispatched to IQ
system.switch_cpus0.iew.iewExecLoadInsts     63884162                       # Number of load instructions executed
system.switch_cpus0.iew.iewExecSquashedInsts       457740                       # Number of squashed instructions skipped in execute
system.switch_cpus0.iew.iewExecutedInsts    401110414                       # Number of executed instructions
system.switch_cpus0.iew.iewIQFullEvents        820589                       # Number of times the IQ has become full, causing a stall
system.switch_cpus0.iew.iewIdleCycles               0                       # Number of cycles IEW is idle
system.switch_cpus0.iew.iewLSQFullEvents       118158                       # Number of times the LSQ has become full, causing a stall
system.switch_cpus0.iew.iewSquashCycles        275503                       # Number of cycles IEW is squashing
system.switch_cpus0.iew.iewUnblockCycles      1484063                       # Number of cycles IEW is unblocking
system.switch_cpus0.iew.memOrderViolationEvents          584                       # Number of memory order violations
system.switch_cpus0.iew.predictedNotTakenIncorrect       154198                       # Number of branches that were predicted not taken incorrectly
system.switch_cpus0.iew.predictedTakenIncorrect       122069                       # Number of branches that were predicted taken incorrectly
system.switch_cpus0.iew.wb_consumers        560526830                       # num instructions consuming a value
system.switch_cpus0.iew.wb_count            400948758                       # cumulative count of insts written-back
system.switch_cpus0.iew.wb_fanout            0.555957                       # average fanout of values written-back
system.switch_cpus0.iew.wb_producers        311629072                       # num instructions producing a value
system.switch_cpus0.iew.wb_rate              2.551113                       # insts written-back per cycle
system.switch_cpus0.iew.wb_sent             401020837                       # cumulative count of insts sent to commit
system.switch_cpus0.int_regfile_reads       331696260                       # number of integer regfile reads
system.switch_cpus0.int_regfile_writes      152167372                       # number of integer regfile writes
system.switch_cpus0.ipc                      1.590049                       # IPC: Instructions Per Cycle
system.switch_cpus0.ipc_total                1.590049                       # IPC: Total IPC of All Threads
system.switch_cpus0.iq.FU_type_0::No_OpClass         1610      0.00%      0.00% # Type of FU issued
system.switch_cpus0.iq.FU_type_0::IntAlu    196478646     48.93%     48.93% # Type of FU issued
system.switch_cpus0.iq.FU_type_0::IntMult      2064422      0.51%     49.44% # Type of FU issued
system.switch_cpus0.iq.FU_type_0::IntDiv            0      0.00%     49.44% # Type of FU issued
system.switch_cpus0.iq.FU_type_0::FloatAdd      4076940      1.02%     50.46% # Type of FU issued
system.switch_cpus0.iq.FU_type_0::FloatCmp            0      0.00%     50.46% # Type of FU issued
system.switch_cpus0.iq.FU_type_0::FloatCvt            0      0.00%     50.46% # Type of FU issued
system.switch_cpus0.iq.FU_type_0::FloatMult            0      0.00%     50.46% # Type of FU issued
system.switch_cpus0.iq.FU_type_0::FloatMultAcc            0      0.00%     50.46% # Type of FU issued
system.switch_cpus0.iq.FU_type_0::FloatDiv            0      0.00%     50.46% # Type of FU issued
system.switch_cpus0.iq.FU_type_0::FloatMisc            0      0.00%     50.46% # Type of FU issued
system.switch_cpus0.iq.FU_type_0::FloatSqrt            0      0.00%     50.46% # Type of FU issued
system.switch_cpus0.iq.FU_type_0::SimdAdd            0      0.00%     50.46% # Type of FU issued
system.switch_cpus0.iq.FU_type_0::SimdAddAcc            0      0.00%     50.46% # Type of FU issued
system.switch_cpus0.iq.FU_type_0::SimdAlu      5777149      1.44%     51.90% # Type of FU issued
system.switch_cpus0.iq.FU_type_0::SimdCmp            0      0.00%     51.90% # Type of FU issued
system.switch_cpus0.iq.FU_type_0::SimdCvt            0      0.00%     51.90% # Type of FU issued
system.switch_cpus0.iq.FU_type_0::SimdMisc      2219603      0.55%     52.45% # Type of FU issued
system.switch_cpus0.iq.FU_type_0::SimdMult            0      0.00%     52.45% # Type of FU issued
system.switch_cpus0.iq.FU_type_0::SimdMultAcc            0      0.00%     52.45% # Type of FU issued
system.switch_cpus0.iq.FU_type_0::SimdShift            0      0.00%     52.45% # Type of FU issued
system.switch_cpus0.iq.FU_type_0::SimdShiftAcc            0      0.00%     52.45% # Type of FU issued
system.switch_cpus0.iq.FU_type_0::SimdDiv            0      0.00%     52.45% # Type of FU issued
system.switch_cpus0.iq.FU_type_0::SimdSqrt            0      0.00%     52.45% # Type of FU issued
system.switch_cpus0.iq.FU_type_0::SimdFloatAdd     42666697     10.63%     63.07% # Type of FU issued
system.switch_cpus0.iq.FU_type_0::SimdFloatAlu            0      0.00%     63.07% # Type of FU issued
system.switch_cpus0.iq.FU_type_0::SimdFloatCmp            0      0.00%     63.07% # Type of FU issued
system.switch_cpus0.iq.FU_type_0::SimdFloatCvt     12439172      3.10%     66.17% # Type of FU issued
system.switch_cpus0.iq.FU_type_0::SimdFloatDiv      2408813      0.60%     66.77% # Type of FU issued
system.switch_cpus0.iq.FU_type_0::SimdFloatMisc            0      0.00%     66.77% # Type of FU issued
system.switch_cpus0.iq.FU_type_0::SimdFloatMult     50279130     12.52%     79.29% # Type of FU issued
system.switch_cpus0.iq.FU_type_0::SimdFloatMultAcc            0      0.00%     79.29% # Type of FU issued
system.switch_cpus0.iq.FU_type_0::SimdFloatSqrt      1962700      0.49%     79.78% # Type of FU issued
system.switch_cpus0.iq.FU_type_0::SimdReduceAdd            0      0.00%     79.78% # Type of FU issued
system.switch_cpus0.iq.FU_type_0::SimdReduceAlu            0      0.00%     79.78% # Type of FU issued
system.switch_cpus0.iq.FU_type_0::SimdReduceCmp            0      0.00%     79.78% # Type of FU issued
system.switch_cpus0.iq.FU_type_0::SimdFloatReduceAdd            0      0.00%     79.78% # Type of FU issued
system.switch_cpus0.iq.FU_type_0::SimdFloatReduceCmp            0      0.00%     79.78% # Type of FU issued
system.switch_cpus0.iq.FU_type_0::SimdAes            0      0.00%     79.78% # Type of FU issued
system.switch_cpus0.iq.FU_type_0::SimdAesMix            0      0.00%     79.78% # Type of FU issued
system.switch_cpus0.iq.FU_type_0::SimdSha1Hash            0      0.00%     79.78% # Type of FU issued
system.switch_cpus0.iq.FU_type_0::SimdSha1Hash2            0      0.00%     79.78% # Type of FU issued
system.switch_cpus0.iq.FU_type_0::SimdSha256Hash            0      0.00%     79.78% # Type of FU issued
system.switch_cpus0.iq.FU_type_0::SimdSha256Hash2            0      0.00%     79.78% # Type of FU issued
system.switch_cpus0.iq.FU_type_0::SimdShaSigma2            0      0.00%     79.78% # Type of FU issued
system.switch_cpus0.iq.FU_type_0::SimdShaSigma3            0      0.00%     79.78% # Type of FU issued
system.switch_cpus0.iq.FU_type_0::SimdPredAlu            0      0.00%     79.78% # Type of FU issued
system.switch_cpus0.iq.FU_type_0::MemRead     11401443      2.84%     82.62% # Type of FU issued
system.switch_cpus0.iq.FU_type_0::MemWrite      5408901      1.35%     83.97% # Type of FU issued
system.switch_cpus0.iq.FU_type_0::FloatMemRead     52591933     13.10%     97.06% # Type of FU issued
system.switch_cpus0.iq.FU_type_0::FloatMemWrite     11790999      2.94%    100.00% # Type of FU issued
system.switch_cpus0.iq.FU_type_0::IprAccess            0      0.00%    100.00% # Type of FU issued
system.switch_cpus0.iq.FU_type_0::InstPrefetch            0      0.00%    100.00% # Type of FU issued
system.switch_cpus0.iq.FU_type_0::total     401568158                       # Type of FU issued
system.switch_cpus0.iq.fp_alu_accesses      223669662                       # Number of floating point alu accesses
system.switch_cpus0.iq.fp_inst_queue_reads    445055937                       # Number of floating instruction queue reads
system.switch_cpus0.iq.fp_inst_queue_wakeup_accesses    221000913                       # Number of floating instruction queue wakeup accesses
system.switch_cpus0.iq.fp_inst_queue_writes    243988548                       # Number of floating instruction queue writes
system.switch_cpus0.iq.fu_busy_cnt            3234777                       # FU busy when requested
system.switch_cpus0.iq.fu_busy_rate          0.008055                       # FU busy rate (busy events/executed inst)
system.switch_cpus0.iq.fu_full::No_OpClass            0      0.00%      0.00% # attempts to use FU when none available
system.switch_cpus0.iq.fu_full::IntAlu          53562      1.66%      1.66% # attempts to use FU when none available
system.switch_cpus0.iq.fu_full::IntMult             0      0.00%      1.66% # attempts to use FU when none available
system.switch_cpus0.iq.fu_full::IntDiv              0      0.00%      1.66% # attempts to use FU when none available
system.switch_cpus0.iq.fu_full::FloatAdd            0      0.00%      1.66% # attempts to use FU when none available
system.switch_cpus0.iq.fu_full::FloatCmp            0      0.00%      1.66% # attempts to use FU when none available
system.switch_cpus0.iq.fu_full::FloatCvt            0      0.00%      1.66% # attempts to use FU when none available
system.switch_cpus0.iq.fu_full::FloatMult            0      0.00%      1.66% # attempts to use FU when none available
system.switch_cpus0.iq.fu_full::FloatMultAcc            0      0.00%      1.66% # attempts to use FU when none available
system.switch_cpus0.iq.fu_full::FloatDiv            0      0.00%      1.66% # attempts to use FU when none available
system.switch_cpus0.iq.fu_full::FloatMisc            0      0.00%      1.66% # attempts to use FU when none available
system.switch_cpus0.iq.fu_full::FloatSqrt            0      0.00%      1.66% # attempts to use FU when none available
system.switch_cpus0.iq.fu_full::SimdAdd             0      0.00%      1.66% # attempts to use FU when none available
system.switch_cpus0.iq.fu_full::SimdAddAcc            0      0.00%      1.66% # attempts to use FU when none available
system.switch_cpus0.iq.fu_full::SimdAlu         43615      1.35%      3.00% # attempts to use FU when none available
system.switch_cpus0.iq.fu_full::SimdCmp             0      0.00%      3.00% # attempts to use FU when none available
system.switch_cpus0.iq.fu_full::SimdCvt             0      0.00%      3.00% # attempts to use FU when none available
system.switch_cpus0.iq.fu_full::SimdMisc            0      0.00%      3.00% # attempts to use FU when none available
system.switch_cpus0.iq.fu_full::SimdMult            0      0.00%      3.00% # attempts to use FU when none available
system.switch_cpus0.iq.fu_full::SimdMultAcc            0      0.00%      3.00% # attempts to use FU when none available
system.switch_cpus0.iq.fu_full::SimdShift            0      0.00%      3.00% # attempts to use FU when none available
system.switch_cpus0.iq.fu_full::SimdShiftAcc            0      0.00%      3.00% # attempts to use FU when none available
system.switch_cpus0.iq.fu_full::SimdDiv             0      0.00%      3.00% # attempts to use FU when none available
system.switch_cpus0.iq.fu_full::SimdSqrt            0      0.00%      3.00% # attempts to use FU when none available
system.switch_cpus0.iq.fu_full::SimdFloatAdd       341190     10.55%     13.55% # attempts to use FU when none available
system.switch_cpus0.iq.fu_full::SimdFloatAlu            0      0.00%     13.55% # attempts to use FU when none available
system.switch_cpus0.iq.fu_full::SimdFloatCmp            0      0.00%     13.55% # attempts to use FU when none available
system.switch_cpus0.iq.fu_full::SimdFloatCvt            0      0.00%     13.55% # attempts to use FU when none available
system.switch_cpus0.iq.fu_full::SimdFloatDiv            1      0.00%     13.55% # attempts to use FU when none available
system.switch_cpus0.iq.fu_full::SimdFloatMisc            0      0.00%     13.55% # attempts to use FU when none available
system.switch_cpus0.iq.fu_full::SimdFloatMult       322939      9.98%     23.54% # attempts to use FU when none available
system.switch_cpus0.iq.fu_full::SimdFloatMultAcc            0      0.00%     23.54% # attempts to use FU when none available
system.switch_cpus0.iq.fu_full::SimdFloatSqrt            0      0.00%     23.54% # attempts to use FU when none available
system.switch_cpus0.iq.fu_full::SimdReduceAdd            0      0.00%     23.54% # attempts to use FU when none available
system.switch_cpus0.iq.fu_full::SimdReduceAlu            0      0.00%     23.54% # attempts to use FU when none available
system.switch_cpus0.iq.fu_full::SimdReduceCmp            0      0.00%     23.54% # attempts to use FU when none available
system.switch_cpus0.iq.fu_full::SimdFloatReduceAdd            0      0.00%     23.54% # attempts to use FU when none available
system.switch_cpus0.iq.fu_full::SimdFloatReduceCmp            0      0.00%     23.54% # attempts to use FU when none available
system.switch_cpus0.iq.fu_full::SimdAes             0      0.00%     23.54% # attempts to use FU when none available
system.switch_cpus0.iq.fu_full::SimdAesMix            0      0.00%     23.54% # attempts to use FU when none available
system.switch_cpus0.iq.fu_full::SimdSha1Hash            0      0.00%     23.54% # attempts to use FU when none available
system.switch_cpus0.iq.fu_full::SimdSha1Hash2            0      0.00%     23.54% # attempts to use FU when none available
system.switch_cpus0.iq.fu_full::SimdSha256Hash            0      0.00%     23.54% # attempts to use FU when none available
system.switch_cpus0.iq.fu_full::SimdSha256Hash2            0      0.00%     23.54% # attempts to use FU when none available
system.switch_cpus0.iq.fu_full::SimdShaSigma2            0      0.00%     23.54% # attempts to use FU when none available
system.switch_cpus0.iq.fu_full::SimdShaSigma3            0      0.00%     23.54% # attempts to use FU when none available
system.switch_cpus0.iq.fu_full::SimdPredAlu            0      0.00%     23.54% # attempts to use FU when none available
system.switch_cpus0.iq.fu_full::MemRead        492180     15.22%     38.75% # attempts to use FU when none available
system.switch_cpus0.iq.fu_full::MemWrite       374040     11.56%     50.31% # attempts to use FU when none available
system.switch_cpus0.iq.fu_full::FloatMemRead       825761     25.53%     75.84% # attempts to use FU when none available
system.switch_cpus0.iq.fu_full::FloatMemWrite       781489     24.16%    100.00% # attempts to use FU when none available
system.switch_cpus0.iq.fu_full::IprAccess            0      0.00%    100.00% # attempts to use FU when none available
system.switch_cpus0.iq.fu_full::InstPrefetch            0      0.00%    100.00% # attempts to use FU when none available
system.switch_cpus0.iq.int_alu_accesses     181131663                       # Number of integer alu accesses
system.switch_cpus0.iq.int_inst_queue_reads    518551931                       # Number of integer instruction queue reads
system.switch_cpus0.iq.int_inst_queue_wakeup_accesses    179947845                       # Number of integer instruction queue wakeup accesses
system.switch_cpus0.iq.int_inst_queue_writes    199260246                       # Number of integer instruction queue writes
system.switch_cpus0.iq.iqInstsAdded         412092667                       # Number of instructions added to the IQ (excludes non-spec)
system.switch_cpus0.iq.iqInstsIssued        401568158                       # Number of instructions issued
system.switch_cpus0.iq.iqSquashedInstsExamined     31155543                       # Number of squashed instructions iterated over during squash; mainly for profiling
system.switch_cpus0.iq.iqSquashedInstsIssued        84990                       # Number of squashed instructions issued
system.switch_cpus0.iq.iqSquashedOperandsExamined     32362522                       # Number of squashed operands that are examined and possibly removed from graph
system.switch_cpus0.iq.issued_per_cycle::samples    157151789                       # Number of insts issued each cycle
system.switch_cpus0.iq.issued_per_cycle::mean     2.555288                       # Number of insts issued each cycle
system.switch_cpus0.iq.issued_per_cycle::stdev     2.587018                       # Number of insts issued each cycle
system.switch_cpus0.iq.issued_per_cycle::underflows            0      0.00%      0.00% # Number of insts issued each cycle
system.switch_cpus0.iq.issued_per_cycle::0     59391796     37.79%     37.79% # Number of insts issued each cycle
system.switch_cpus0.iq.issued_per_cycle::1     11982346      7.62%     45.42% # Number of insts issued each cycle
system.switch_cpus0.iq.issued_per_cycle::2     14232905      9.06%     54.47% # Number of insts issued each cycle
system.switch_cpus0.iq.issued_per_cycle::3     14288913      9.09%     63.57% # Number of insts issued each cycle
system.switch_cpus0.iq.issued_per_cycle::4     17254731     10.98%     74.55% # Number of insts issued each cycle
system.switch_cpus0.iq.issued_per_cycle::5     13877739      8.83%     83.38% # Number of insts issued each cycle
system.switch_cpus0.iq.issued_per_cycle::6     11288108      7.18%     90.56% # Number of insts issued each cycle
system.switch_cpus0.iq.issued_per_cycle::7      6565012      4.18%     94.74% # Number of insts issued each cycle
system.switch_cpus0.iq.issued_per_cycle::8      8270239      5.26%    100.00% # Number of insts issued each cycle
system.switch_cpus0.iq.issued_per_cycle::overflows            0      0.00%    100.00% # Number of insts issued each cycle
system.switch_cpus0.iq.issued_per_cycle::min_value            0                       # Number of insts issued each cycle
system.switch_cpus0.iq.issued_per_cycle::max_value            8                       # Number of insts issued each cycle
system.switch_cpus0.iq.issued_per_cycle::total    157151789                       # Number of insts issued each cycle
system.switch_cpus0.iq.rate                  2.555054                       # Inst issue rate
system.switch_cpus0.iq.vec_alu_accesses             0                       # Number of vector alu accesses
system.switch_cpus0.iq.vec_inst_queue_reads            0                       # Number of vector instruction queue reads
system.switch_cpus0.iq.vec_inst_queue_wakeup_accesses            0                       # Number of vector instruction queue wakeup accesses
system.switch_cpus0.iq.vec_inst_queue_writes            0                       # Number of vector instruction queue writes
system.switch_cpus0.memDep0.conflictingLoads      5000328                       # Number of conflicting loads.
system.switch_cpus0.memDep0.conflictingStores       558408                       # Number of conflicting stores.
system.switch_cpus0.memDep0.insertedLoads     64895580                       # Number of loads inserted to the mem dependence unit.
system.switch_cpus0.memDep0.insertedStores     17762173                       # Number of stores inserted to the mem dependence unit.
system.switch_cpus0.misc_regfile_reads      156240199                       # number of misc regfile reads
system.switch_cpus0.misc_regfile_writes             1                       # number of misc regfile writes
system.switch_cpus0.numCycles               157166219                       # number of cpu cycles simulated
system.switch_cpus0.numWorkItemsCompleted            0                       # number of work items this cpu completed
system.switch_cpus0.numWorkItemsStarted             0                       # number of work items this cpu started
system.switch_cpus0.timesIdled                     79                       # Number of times that the entire CPU went into an idle state and unscheduled itself
system.switch_cpus1.cc_regfile_reads        146972305                       # number of cc regfile reads
system.switch_cpus1.cc_regfile_writes        71414444                       # number of cc regfile writes
system.switch_cpus1.committedInsts          249778336                       # Number of Instructions Simulated
system.switch_cpus1.committedOps            380749132                       # Number of Ops (including micro ops) Simulated
system.switch_cpus1.cpi                      0.629223                       # CPI: Cycles Per Instruction
system.switch_cpus1.cpi_total                0.629223                       # CPI: Total CPI of All Threads
system.switch_cpus1.fp_regfile_reads        410469387                       # number of floating regfile reads
system.switch_cpus1.fp_regfile_writes       196241258                       # number of floating regfile writes
system.switch_cpus1.idleCycles                  15074                       # Total number of cycles that the CPU has spent unscheduled due to idling
system.switch_cpus1.iew.branchMispredicts       276140                       # Number of branch mispredicts detected at execute
system.switch_cpus1.iew.exec_branches        25783498                       # Number of branches executed
system.switch_cpus1.iew.exec_nop                    0                       # number of nop insts executed
system.switch_cpus1.iew.exec_rate            2.550901                       # Inst execution rate
system.switch_cpus1.iew.exec_refs            81029476                       # number of memory reference insts executed
system.switch_cpus1.iew.exec_stores          17176280                       # Number of stores executed
system.switch_cpus1.iew.exec_swp                    0                       # number of swp insts executed
system.switch_cpus1.iew.iewBlockCycles       47148566                       # Number of cycles IEW is blocking
system.switch_cpus1.iew.iewDispLoadInsts     64864302                       # Number of dispatched load instructions
system.switch_cpus1.iew.iewDispNonSpecInsts            0                       # Number of dispatched non-speculative instructions
system.switch_cpus1.iew.iewDispSquashedInsts          902                       # Number of squashed instructions skipped by dispatch
system.switch_cpus1.iew.iewDispStoreInsts     17754266                       # Number of dispatched store instructions
system.switch_cpus1.iew.iewDispatchedInsts    411894181                       # Number of instructions dispatched to IQ
system.switch_cpus1.iew.iewExecLoadInsts     63853196                       # Number of load instructions executed
system.switch_cpus1.iew.iewExecSquashedInsts       457418                       # Number of squashed instructions skipped in execute
system.switch_cpus1.iew.iewExecutedInsts    400915539                       # Number of executed instructions
system.switch_cpus1.iew.iewIQFullEvents        821328                       # Number of times the IQ has become full, causing a stall
system.switch_cpus1.iew.iewIdleCycles               0                       # Number of cycles IEW is idle
system.switch_cpus1.iew.iewLSQFullEvents       116730                       # Number of times the LSQ has become full, causing a stall
system.switch_cpus1.iew.iewSquashCycles        275430                       # Number of cycles IEW is squashing
system.switch_cpus1.iew.iewUnblockCycles      1484396                       # Number of cycles IEW is unblocking
system.switch_cpus1.iew.memOrderViolationEvents          635                       # Number of memory order violations
system.switch_cpus1.iew.predictedNotTakenIncorrect       154124                       # Number of branches that were predicted not taken incorrectly
system.switch_cpus1.iew.predictedTakenIncorrect       122016                       # Number of branches that were predicted taken incorrectly
system.switch_cpus1.iew.wb_consumers        560238673                       # num instructions consuming a value
system.switch_cpus1.iew.wb_count            400753976                       # cumulative count of insts written-back
system.switch_cpus1.iew.wb_fanout            0.555958                       # average fanout of values written-back
system.switch_cpus1.iew.wb_producers        311469114                       # num instructions producing a value
system.switch_cpus1.iew.wb_rate              2.549873                       # insts written-back per cycle
system.switch_cpus1.iew.wb_sent             400825917                       # cumulative count of insts sent to commit
system.switch_cpus1.int_regfile_reads       331536565                       # number of integer regfile reads
system.switch_cpus1.int_regfile_writes      152093950                       # number of integer regfile writes
system.switch_cpus1.ipc                      1.589262                       # IPC: Instructions Per Cycle
system.switch_cpus1.ipc_total                1.589262                       # IPC: Total IPC of All Threads
system.switch_cpus1.iq.FU_type_0::No_OpClass         1594      0.00%      0.00% # Type of FU issued
system.switch_cpus1.iq.FU_type_0::IntAlu    196383262     48.93%     48.93% # Type of FU issued
system.switch_cpus1.iq.FU_type_0::IntMult      2063342      0.51%     49.44% # Type of FU issued
system.switch_cpus1.iq.FU_type_0::IntDiv            0      0.00%     49.44% # Type of FU issued
system.switch_cpus1.iq.FU_type_0::FloatAdd      4075384      1.02%     50.46% # Type of FU issued
system.switch_cpus1.iq.FU_type_0::FloatCmp            0      0.00%     50.46% # Type of FU issued
system.switch_cpus1.iq.FU_type_0::FloatCvt            0      0.00%     50.46% # Type of FU issued
system.switch_cpus1.iq.FU_type_0::FloatMult            0      0.00%     50.46% # Type of FU issued
system.switch_cpus1.iq.FU_type_0::FloatMultAcc            0      0.00%     50.46% # Type of FU issued
system.switch_cpus1.iq.FU_type_0::FloatDiv            0      0.00%     50.46% # Type of FU issued
system.switch_cpus1.iq.FU_type_0::FloatMisc            0      0.00%     50.46% # Type of FU issued
system.switch_cpus1.iq.FU_type_0::FloatSqrt            0      0.00%     50.46% # Type of FU issued
system.switch_cpus1.iq.FU_type_0::SimdAdd            0      0.00%     50.46% # Type of FU issued
system.switch_cpus1.iq.FU_type_0::SimdAddAcc            0      0.00%     50.46% # Type of FU issued
system.switch_cpus1.iq.FU_type_0::SimdAlu      5774940      1.44%     51.90% # Type of FU issued
system.switch_cpus1.iq.FU_type_0::SimdCmp            0      0.00%     51.90% # Type of FU issued
system.switch_cpus1.iq.FU_type_0::SimdCvt            0      0.00%     51.90% # Type of FU issued
system.switch_cpus1.iq.FU_type_0::SimdMisc      2218648      0.55%     52.45% # Type of FU issued
system.switch_cpus1.iq.FU_type_0::SimdMult            0      0.00%     52.45% # Type of FU issued
system.switch_cpus1.iq.FU_type_0::SimdMultAcc            0      0.00%     52.45% # Type of FU issued
system.switch_cpus1.iq.FU_type_0::SimdShift            0      0.00%     52.45% # Type of FU issued
system.switch_cpus1.iq.FU_type_0::SimdShiftAcc            0      0.00%     52.45% # Type of FU issued
system.switch_cpus1.iq.FU_type_0::SimdDiv            0      0.00%     52.45% # Type of FU issued
system.switch_cpus1.iq.FU_type_0::SimdSqrt            0      0.00%     52.45% # Type of FU issued
system.switch_cpus1.iq.FU_type_0::SimdFloatAdd     42645440     10.62%     63.07% # Type of FU issued
system.switch_cpus1.iq.FU_type_0::SimdFloatAlu            0      0.00%     63.07% # Type of FU issued
system.switch_cpus1.iq.FU_type_0::SimdFloatCmp            0      0.00%     63.07% # Type of FU issued
system.switch_cpus1.iq.FU_type_0::SimdFloatCvt     12432974      3.10%     66.17% # Type of FU issued
system.switch_cpus1.iq.FU_type_0::SimdFloatDiv      2407593      0.60%     66.77% # Type of FU issued
system.switch_cpus1.iq.FU_type_0::SimdFloatMisc            0      0.00%     66.77% # Type of FU issued
system.switch_cpus1.iq.FU_type_0::SimdFloatMult     50253583     12.52%     79.29% # Type of FU issued
system.switch_cpus1.iq.FU_type_0::SimdFloatMultAcc            0      0.00%     79.29% # Type of FU issued
system.switch_cpus1.iq.FU_type_0::SimdFloatSqrt      1961692      0.49%     79.78% # Type of FU issued
system.switch_cpus1.iq.FU_type_0::SimdReduceAdd            0      0.00%     79.78% # Type of FU issued
system.switch_cpus1.iq.FU_type_0::SimdReduceAlu            0      0.00%     79.78% # Type of FU issued
system.switch_cpus1.iq.FU_type_0::SimdReduceCmp            0      0.00%     79.78% # Type of FU issued
system.switch_cpus1.iq.FU_type_0::SimdFloatReduceAdd            0      0.00%     79.78% # Type of FU issued
system.switch_cpus1.iq.FU_type_0::SimdFloatReduceCmp            0      0.00%     79.78% # Type of FU issued
system.switch_cpus1.iq.FU_type_0::SimdAes            0      0.00%     79.78% # Type of FU issued
system.switch_cpus1.iq.FU_type_0::SimdAesMix            0      0.00%     79.78% # Type of FU issued
system.switch_cpus1.iq.FU_type_0::SimdSha1Hash            0      0.00%     79.78% # Type of FU issued
[...]
system.switch_cpus3.commit.numCommittedDist::stdev     3.218836                       # Number of insts commited each cycle
system.switch_cpus3.commit.numCommittedDist::underflows            0      0.00%      0.00% # Number of insts commited each cycle
system.switch_cpus3.commit.numCommittedDist::0     73246588     47.83%     47.83% # Number of insts commited each cycle
system.switch_cpus3.commit.numCommittedDist::1     20756434     13.55%     61.38% # Number of insts commited each cycle
system.switch_cpus3.commit.numCommittedDist::2      6052827      3.95%     65.34% # Number of insts commited each cycle
system.switch_cpus3.commit.numCommittedDist::3      6468854      4.22%     69.56% # Number of insts commited each cycle
system.switch_cpus3.commit.numCommittedDist::4      7784707      5.08%     74.64% # Number of insts commited each cycle
system.switch_cpus3.commit.numCommittedDist::5      2590533      1.69%     76.33% # Number of insts commited each cycle
system.switch_cpus3.commit.numCommittedDist::6      2566713      1.68%     78.01% # Number of insts commited each cycle
system.switch_cpus3.commit.numCommittedDist::7       471336      0.31%     78.32% # Number of insts commited each cycle
system.switch_cpus3.commit.numCommittedDist::8     33203109     21.68%    100.00% # Number of insts commited each cycle
system.switch_cpus3.commit.numCommittedDist::overflows            0      0.00%    100.00% # Number of insts commited each cycle
system.switch_cpus3.commit.numCommittedDist::min_value            0                       # Number of insts commited each cycle
system.switch_cpus3.commit.numCommittedDist::max_value            8                       # Number of insts commited each cycle
system.switch_cpus3.commit.numCommittedDist::total    153141101                       # Number of insts commited each cycle
system.switch_cpus3.commit.instsCommitted    249735830                       # Number of instructions committed
system.switch_cpus3.commit.opsCommitted     380684645                       # Number of ops (including micro ops) committed
system.switch_cpus3.commit.memRefs           75159311                       # Number of memory references committed
system.switch_cpus3.commit.loads             61072221                       # Number of loads committed
system.switch_cpus3.commit.amos                     0                       # Number of atomic instructions committed
system.switch_cpus3.commit.membars                  0                       # Number of memory barriers committed
system.switch_cpus3.commit.branches          24500064                       # Number of branches committed
system.switch_cpus3.commit.vector                   0                       # Number of committed Vector instructions.
system.switch_cpus3.commit.floating         213128189                       # Number of committed floating point instructions.
system.switch_cpus3.commit.integer          230007071                       # Number of committed integer instructions.
system.switch_cpus3.commit.functionCalls       283390                       # Number of function calls committed.
system.switch_cpus3.commit.committedInstType_0::No_OpClass         1372      0.00%      0.00% # Class of committed instruction
system.switch_cpus3.commit.committedInstType_0::IntAlu    185284622     48.67%     48.67% # Class of committed instruction
system.switch_cpus3.commit.committedInstType_0::IntMult      1962710      0.52%     49.19% # Class of committed instruction
system.switch_cpus3.commit.committedInstType_0::IntDiv            0      0.00%     49.19% # Class of committed instruction
system.switch_cpus3.commit.committedInstType_0::FloatAdd      3401576      0.89%     50.08% # Class of committed instruction
system.switch_cpus3.commit.committedInstType_0::FloatCmp            0      0.00%     50.08% # Class of committed instruction
system.switch_cpus3.commit.committedInstType_0::FloatCvt            0      0.00%     50.08% # Class of committed instruction
system.switch_cpus3.commit.committedInstType_0::FloatMult            0      0.00%     50.08% # Class of committed instruction
system.switch_cpus3.commit.committedInstType_0::FloatMultAcc            0      0.00%     50.08% # Class of committed instruction
system.switch_cpus3.commit.committedInstType_0::FloatDiv            0      0.00%     50.08% # Class of committed instruction
system.switch_cpus3.commit.committedInstType_0::FloatMisc            0      0.00%     50.08% # Class of committed instruction
system.switch_cpus3.commit.committedInstType_0::FloatSqrt            0      0.00%     50.08% # Class of committed instruction
system.switch_cpus3.commit.committedInstType_0::SimdAdd            0      0.00%     50.08% # Class of committed instruction
system.switch_cpus3.commit.committedInstType_0::SimdAddAcc            0      0.00%     50.08% # Class of committed instruction
system.switch_cpus3.commit.committedInstType_0::SimdAlu      5129218      1.35%     51.43% # Class of committed instruction
system.switch_cpus3.commit.committedInstType_0::SimdCmp            0      0.00%     51.43% # Class of committed instruction
system.switch_cpus3.commit.committedInstType_0::SimdCvt            0      0.00%     51.43% # Class of committed instruction
system.switch_cpus3.commit.committedInstType_0::SimdMisc      1983730      0.52%     51.95% # Class of committed instruction
system.switch_cpus3.commit.committedInstType_0::SimdMult            0      0.00%     51.95% # Class of committed instruction
system.switch_cpus3.commit.committedInstType_0::SimdMultAcc            0      0.00%     51.95% # Class of committed instruction
system.switch_cpus3.commit.committedInstType_0::SimdShift            0      0.00%     51.95% # Class of committed instruction
system.switch_cpus3.commit.committedInstType_0::SimdShiftAcc            0      0.00%     51.95% # Class of committed instruction
system.switch_cpus3.commit.committedInstType_0::SimdDiv            0      0.00%     51.95% # Class of committed instruction
system.switch_cpus3.commit.committedInstType_0::SimdSqrt            0      0.00%     51.95% # Class of committed instruction
system.switch_cpus3.commit.committedInstType_0::SimdFloatAdd     42189013     11.08%     63.03% # Class of committed instruction
system.switch_cpus3.commit.committedInstType_0::SimdFloatAlu            0      0.00%     63.03% # Class of committed instruction
system.switch_cpus3.commit.committedInstType_0::SimdFloatCmp            0      0.00%     63.03% # Class of committed instruction
system.switch_cpus3.commit.committedInstType_0::SimdFloatCvt     12165221      3.20%     66.23% # Class of committed instruction
system.switch_cpus3.commit.committedInstType_0::SimdFloatDiv      2277797      0.60%     66.83% # Class of committed instruction
system.switch_cpus3.commit.committedInstType_0::SimdFloatMisc            0      0.00%     66.83% # Class of committed instruction
system.switch_cpus3.commit.committedInstType_0::SimdFloatMult     49168737     12.92%     79.74% # Class of committed instruction
system.switch_cpus3.commit.committedInstType_0::SimdFloatMultAcc            0      0.00%     79.74% # Class of committed instruction
system.switch_cpus3.commit.committedInstType_0::SimdFloatSqrt      1961338      0.52%     80.26% # Class of committed instruction
system.switch_cpus3.commit.committedInstType_0::SimdReduceAdd            0      0.00%     80.26% # Class of committed instruction
system.switch_cpus3.commit.committedInstType_0::SimdReduceAlu            0      0.00%     80.26% # Class of committed instruction
system.switch_cpus3.commit.committedInstType_0::SimdReduceCmp            0      0.00%     80.26% # Class of committed instruction
system.switch_cpus3.commit.committedInstType_0::SimdFloatReduceAdd            0      0.00%     80.26% # Class of committed instruction
system.switch_cpus3.commit.committedInstType_0::SimdFloatReduceCmp            0      0.00%     80.26% # Class of committed instruction
system.switch_cpus3.commit.committedInstType_0::SimdAes            0      0.00%     80.26% # Class of committed instruction
system.switch_cpus3.commit.committedInstType_0::SimdAesMix            0      0.00%     80.26% # Class of committed instruction
system.switch_cpus3.commit.committedInstType_0::SimdSha1Hash            0      0.00%     80.26% # Class of committed instruction
system.switch_cpus3.commit.committedInstType_0::SimdSha1Hash2            0      0.00%     80.26% # Class of committed instruction
system.switch_cpus3.commit.committedInstType_0::SimdSha256Hash            0      0.00%     80.26% # Class of committed instruction
system.switch_cpus3.commit.committedInstType_0::SimdSha256Hash2            0      0.00%     80.26% # Class of committed instruction
system.switch_cpus3.commit.committedInstType_0::SimdShaSigma2            0      0.00%     80.26% # Class of committed instruction
system.switch_cpus3.commit.committedInstType_0::SimdShaSigma3            0      0.00%     80.26% # Class of committed instruction
system.switch_cpus3.commit.committedInstType_0::SimdPredAlu            0      0.00%     80.26% # Class of committed instruction
system.switch_cpus3.commit.committedInstType_0::MemRead     10719478      2.82%     83.07% # Class of committed instruction
system.switch_cpus3.commit.committedInstType_0::MemWrite      3971576      1.04%     84.12% # Class of committed instruction
system.switch_cpus3.commit.committedInstType_0::FloatMemRead     50352743     13.23%     97.34% # Class of committed instruction
system.switch_cpus3.commit.committedInstType_0::FloatMemWrite     10115514      2.66%    100.00% # Class of committed instruction
system.switch_cpus3.commit.committedInstType_0::IprAccess            0      0.00%    100.00% # Class of committed instruction
system.switch_cpus3.commit.committedInstType_0::InstPrefetch            0      0.00%    100.00% # Class of committed instruction
system.switch_cpus3.commit.committedInstType_0::total    380684645                       # Class of committed instruction
system.switch_cpus3.commit.commitEligibleSamples     33203109                       # number cycles where commit BW limit reached
system.switch_cpus3.decode.idleCycles        10886671                       # Number of cycles decode is idle
system.switch_cpus3.decode.blockedCycles     91770559                       # Number of cycles decode is blocked
system.switch_cpus3.decode.runCycles         32709288                       # Number of cycles decode is running
system.switch_cpus3.decode.unblockCycles     21509774                       # Number of cycles decode is unblocking
system.switch_cpus3.decode.squashCycles        275389                       # Number of cycles decode is squashing
system.switch_cpus3.decode.branchResolved     11534388                       # Number of times decode resolved a  branch
system.switch_cpus3.decode.branchMispred           40                       # Number of times decode detected a branch misprediction
system.switch_cpus3.decode.decodedInsts     416848694                       # Number of instructions handled by decode
system.switch_cpus3.decode.squashedInsts          164                       # Number of squashed instructions handled by decode
system.switch_cpus3.dtb.rdAccesses           63842356                       # TLB accesses on read requests
system.switch_cpus3.dtb.wrAccesses           17173649                       # TLB accesses on write requests
system.switch_cpus3.dtb.rdMisses                73103                       # TLB misses on read requests
system.switch_cpus3.dtb.wrMisses                    1                       # TLB misses on write requests
system.switch_cpus3.dtb.walker.power_state.pwrStateResidencyTicks::UNDEFINED 16944239184282                       # Cumulative time (in ticks) in various power states
system.switch_cpus3.fetch.icacheStallCycles       273282                       # Number of cycles fetch is stalled on an Icache miss
system.switch_cpus3.fetch.insts             276823185                       # Number of instructions fetch has processed
system.switch_cpus3.fetch.branches           26936535                       # Number of branches that fetch encountered
system.switch_cpus3.fetch.predictedBranches     12645550                       # Number of branches that fetch has predicted taken
system.switch_cpus3.fetch.cycles            156602976                       # Number of cycles fetch has run and was not squashing or blocked
system.switch_cpus3.fetch.squashCycles         550858                       # Number of cycles fetch has spent squashing
system.switch_cpus3.fetch.cacheLines         31422598                       # Number of cache lines fetched
system.switch_cpus3.fetch.icacheSquashes           62                       # Number of outstanding Icache misses that were squashed
system.switch_cpus3.fetch.nisnDist::samples    157151687                       # Number of instructions fetched each cycle (Total)
system.switch_cpus3.fetch.nisnDist::mean     2.692513                       # Number of instructions fetched each cycle (Total)
system.switch_cpus3.fetch.nisnDist::stdev     3.375201                       # Number of instructions fetched each cycle (Total)
system.switch_cpus3.fetch.nisnDist::underflows            0      0.00%      0.00% # Number of instructions fetched each cycle (Total)
system.switch_cpus3.fetch.nisnDist::0        83680521     53.25%     53.25% # Number of instructions fetched each cycle (Total)
system.switch_cpus3.fetch.nisnDist::1         6153899      3.92%     57.16% # Number of instructions fetched each cycle (Total)
system.switch_cpus3.fetch.nisnDist::2         6665644      4.24%     61.41% # Number of instructions fetched each cycle (Total)
system.switch_cpus3.fetch.nisnDist::3         5650402      3.60%     65.00% # Number of instructions fetched each cycle (Total)
system.switch_cpus3.fetch.nisnDist::4         7428911      4.73%     69.73% # Number of instructions fetched each cycle (Total)
system.switch_cpus3.fetch.nisnDist::5         5219163      3.32%     73.05% # Number of instructions fetched each cycle (Total)
system.switch_cpus3.fetch.nisnDist::6         2523828      1.61%     74.66% # Number of instructions fetched each cycle (Total)
system.switch_cpus3.fetch.nisnDist::7         2892413      1.84%     76.50% # Number of instructions fetched each cycle (Total)
system.switch_cpus3.fetch.nisnDist::8        36936906     23.50%    100.00% # Number of instructions fetched each cycle (Total)
system.switch_cpus3.fetch.nisnDist::overflows            0      0.00%    100.00% # Number of instructions fetched each cycle (Total)
system.switch_cpus3.fetch.nisnDist::min_value            0                       # Number of instructions fetched each cycle (Total)
system.switch_cpus3.fetch.nisnDist::max_value            8                       # Number of instructions fetched each cycle (Total)
system.switch_cpus3.fetch.nisnDist::total    157151687                       # Number of instructions fetched each cycle (Total)
system.switch_cpus3.fetch.branchRate         0.171389                       # Number of branch fetches per cycle
system.switch_cpus3.fetch.rate               1.761340                       # Number of inst fetches per cycle
system.switch_cpus3.itb.rdAccesses                  0                       # TLB accesses on read requests
system.switch_cpus3.itb.wrAccesses           31422598                       # TLB accesses on write requests
system.switch_cpus3.itb.rdMisses                    0                       # TLB misses on read requests
system.switch_cpus3.itb.wrMisses                   10                       # TLB misses on write requests
system.switch_cpus3.itb.walker.power_state.pwrStateResidencyTicks::UNDEFINED 16944239184282                       # Cumulative time (in ticks) in various power states
system.switch_cpus3.lsq0.forwLoads             494894                       # Number of loads that had data forwarded from stores
system.switch_cpus3.lsq0.squashedLoads        3781183                       # Number of loads squashed
system.switch_cpus3.lsq0.ignoredResponses           11                       # Number of memory responses ignored because the instruction is squashed
system.switch_cpus3.lsq0.memOrderViolation          635                       # Number of memory ordering violations
system.switch_cpus3.lsq0.squashedStores       3664444                       # Number of stores squashed
system.switch_cpus3.lsq0.rescheduledLoads            0                       # Number of loads that were rescheduled
system.switch_cpus3.lsq0.blockedByCache             0                       # Number of times an access to memory failed due to the cache being blocked
system.switch_cpus3.power_state.pwrStateResidencyTicks::OFF  52336361583                       # Cumulative time (in ticks) in various power states
system.switch_cpus3.rename.squashCycles        275389                       # Number of cycles rename is squashing
system.switch_cpus3.rename.idleCycles        18187118                       # Number of cycles rename is idle
system.switch_cpus3.rename.blockCycles       57791144                       # Number of cycles rename is blocking
system.switch_cpus3.rename.serializeStallCycles            0                       # count of cycles rename stalledfor serializing inst
system.switch_cpus3.rename.runCycles         46383307                       # Number of cycles rename is running
system.switch_cpus3.rename.unblockCycles     34514723                       # Number of cycles rename is unblocking
system.switch_cpus3.rename.renamedInsts     414986104                       # Number of instructions processed by rename
system.switch_cpus3.rename.ROBFullEvents       233773                       # Number of times rename has blocked due to ROB full
system.switch_cpus3.rename.IQFullEvents      25412610                       # Number of times rename has blocked due to IQ full
system.switch_cpus3.rename.LQFullEvents       3260601                       # Number of times rename has blocked due to LQ full
system.switch_cpus3.rename.SQFullEvents          1102                       # Number of times rename has blocked due to SQ full
system.switch_cpus3.rename.renamedOperands    435887839                       # Number of destination operands rename has renamed
system.switch_cpus3.rename.lookups         1085106175                       # Number of register rename lookups that rename has made
system.switch_cpus3.rename.intLookups       344157533                       # Number of integer rename lookups
system.switch_cpus3.rename.fpLookups        429496162                       # Number of floating rename lookups
system.switch_cpus3.rename.committedMaps    400682795                       # Number of HB maps that are committed
system.switch_cpus3.rename.undoneMaps        35204881                       # Number of HB maps that are undone due to squashing
system.switch_cpus3.rename.serializing              0                       # count of serializing insts renamed
system.switch_cpus3.rename.tempSerializing            0                       # count of temporary serializing insts renamed
system.switch_cpus3.rename.skidInsts         93674992                       # count of insts added to the skid buffer
system.switch_cpus3.rob.reads               531762992                       # The number of ROB reads
system.switch_cpus3.rob.writes              827660777                       # The number of ROB writes
system.switch_cpus3.thread0.numInsts        249735830                       # Number of Instructions committed
system.switch_cpus3.thread0.numOps          380684645                       # Number of Ops committed
system.switch_cpus3.thread0.numMemRefs              0                       # Number of Memory References
system.voltage_domain.voltage                       1                       # Voltage in Volts

---------- End Simulation Statistics   ----------
