Command line:
./runscript_pride.sh cactuBSSN RFM5.BR2.4C 4 2017 --rh_defense --rh_mitigation=RFM --rh_rfm_per_trefi=5 --rh_rfm_blast_radius=2 --rh_rfm_maxacts_per_trefi=79
Global frequency set at 1000000000000 ticks per second
RFM details - rfm_act_threshold: 15, blast_radius: 2, delay_per_rfm: 175000 ps. sample_rate: 0.062500
RH Defense config: RFM, Bus Delay: 0, rfms_per_trefi: 5, rfm_act_threshold: 15, blast_radius: 2,rfm_delay_per_act: 45000 ps.
DRAM config: RowsPerBank: 65536, BanksPerRank: 32, RanksPerChannel: 1
warn: Sockets disabled, not accepting gdb connections
warn: CoherentXBar system.cpu0.mmucache.mmubus has no snooping ports attached!
warn: CoherentXBar system.cpu1.mmucache.mmubus has no snooping ports attached!
warn: CoherentXBar system.cpu2.mmucache.mmubus has no snooping ports attached!
warn: CoherentXBar system.cpu3.mmucache.mmubus has no snooping ports attached!
warn: Checkpoints for file descriptors currently do not work.
warn: Checkpoints for file descriptors currently do not work.
warn: Checkpoints for file descriptors currently do not work.
warn: Checkpoints for file descriptors currently do not work.
gem5 Simulator System.  http://gem5.org
gem5 is copyrighted software; use the --copyright option for details.

gem5 version 20.1.0.5
gem5 compiled Jul 12 2024 12:42:38
gem5 started Jul 22 2024 16:04:36
gem5 executing on a07dda8b130c, pid 88788
command line: /home/user/PrIDE/performance/gem5/build/X86/gem5.opt --outdir=/home/user/PrIDE/performance/gem5/stats/pride_multiprogram_16GBmem_250Mn.SPEC2017.C4/RFM5.BR2.4C/cactuBSSN /home/user/PrIDE/performance/gem5/configs/example/se_rq_spec_config_multicore.py --redirects /lib64=/home/utils/gcc-6.2.0/lib64 --benchmark=cactuBSSN --benchmark_stdout=/home/user/PrIDE/performance/gem5/stats/pride_multiprogram_16GBmem_250Mn.SPEC2017.C4/RFM5.BR2.4C/cactuBSSN/cactuBSSN.out --benchmark_stderr=/home/user/PrIDE/performance/gem5/stats/pride_multiprogram_16GBmem_250Mn.SPEC2017.C4/RFM5.BR2.4C/cactuBSSN/cactuBSSN.err --spec-version=2017 --rh_defense --rh_mitigation=RFM --rh_rfm_per_trefi=5 --rh_rfm_blast_radius=2 --rh_rfm_maxacts_per_trefi=79 --num-cpus=4 --mem-size=16GB --mem-type=DDR5_2400_32x4 --mem-ranks=1 --checkpoint-dir=/home/user/PrIDE/performance/gem5/cpts/multiprogram_16GBmem_25Bn.SPEC2017.C4/cactuBSSN-1-ref-x86 --checkpoint-restore=25000000000 --at-instruction --cpu-type DerivO3CPU --caches --l2cache --l1d_size=32kB --l1i_size=32kB --l2_size=256kB --l1d_assoc=8 --l1i_assoc=8 --l2_assoc=16 --maxinsts=250000000 --prog-interval=300Hz

info: Standard input is not a terminal, disabling listeners.
Benchmark- 0   cactuBSSN
Selected benchmark
--> cactuBSSN
CMD: ['/opt/spec2017/benchspec/CPU/507.cactuBSSN_r/run/run_base_refrate_gem5_se-m64.0000/cactusBSSN_r_base.gem5_se-m64', '/opt/spec2017/benchspec/CPU/507.cactuBSSN_r/run/run_base_refrate_gem5_se-m64.0000/spec_ref.par']
CWD: /opt/spec2017/benchspec/CPU/507.cactuBSSN_r/run/run_base_refrate_gem5_se-m64.0000/
Process stdout file: /home/user/PrIDE/performance/gem5/stats/pride_multiprogram_16GBmem_250Mn.SPEC2017.C4/RFM5.BR2.4C/cactuBSSN/cactuBSSN.out_0
Process stderr file: /home/user/PrIDE/performance/gem5/stats/pride_multiprogram_16GBmem_250Mn.SPEC2017.C4/RFM5.BR2.4C/cactuBSSN/cactuBSSN.err_0
Benchmark- 1   cactuBSSN
Selected benchmark
--> cactuBSSN
CMD: ['/opt/spec2017/benchspec/CPU/507.cactuBSSN_r/run/run_base_refrate_gem5_se-m64.0000/cactusBSSN_r_base.gem5_se-m64', '/opt/spec2017/benchspec/CPU/507.cactuBSSN_r/run/run_base_refrate_gem5_se-m64.0000/spec_ref.par']
CWD: /opt/spec2017/benchspec/CPU/507.cactuBSSN_r/run/run_base_refrate_gem5_se-m64.0000/
Process stdout file: /home/user/PrIDE/performance/gem5/stats/pride_multiprogram_16GBmem_250Mn.SPEC2017.C4/RFM5.BR2.4C/cactuBSSN/cactuBSSN.out_1
Process stderr file: /home/user/PrIDE/performance/gem5/stats/pride_multiprogram_16GBmem_250Mn.SPEC2017.C4/RFM5.BR2.4C/cactuBSSN/cactuBSSN.err_1
Benchmark- 2   cactuBSSN
Selected benchmark
--> cactuBSSN
CMD: ['/opt/spec2017/benchspec/CPU/507.cactuBSSN_r/run/run_base_refrate_gem5_se-m64.0000/cactusBSSN_r_base.gem5_se-m64', '/opt/spec2017/benchspec/CPU/507.cactuBSSN_r/run/run_base_refrate_gem5_se-m64.0000/spec_ref.par']
CWD: /opt/spec2017/benchspec/CPU/507.cactuBSSN_r/run/run_base_refrate_gem5_se-m64.0000/
Process stdout file: /home/user/PrIDE/performance/gem5/stats/pride_multiprogram_16GBmem_250Mn.SPEC2017.C4/RFM5.BR2.4C/cactuBSSN/cactuBSSN.out_2
Process stderr file: /home/user/PrIDE/performance/gem5/stats/pride_multiprogram_16GBmem_250Mn.SPEC2017.C4/RFM5.BR2.4C/cactuBSSN/cactuBSSN.err_2
Benchmark- 3   cactuBSSN
Selected benchmark
--> cactuBSSN
CMD: ['/opt/spec2017/benchspec/CPU/507.cactuBSSN_r/run/run_base_refrate_gem5_se-m64.0000/cactusBSSN_r_base.gem5_se-m64', '/opt/spec2017/benchspec/CPU/507.cactuBSSN_r/run/run_base_refrate_gem5_se-m64.0000/spec_ref.par']
CWD: /opt/spec2017/benchspec/CPU/507.cactuBSSN_r/run/run_base_refrate_gem5_se-m64.0000/
Process stdout file: /home/user/PrIDE/performance/gem5/stats/pride_multiprogram_16GBmem_250Mn.SPEC2017.C4/RFM5.BR2.4C/cactuBSSN/cactuBSSN.out_3
Process stderr file: /home/user/PrIDE/performance/gem5/stats/pride_multiprogram_16GBmem_250Mn.SPEC2017.C4/RFM5.BR2.4C/cactuBSSN/cactuBSSN.err_3
Workload-0: 
['/opt/spec2017/benchspec/CPU/507.cactuBSSN_r/run/run_base_refrate_gem5_se-m64.0000/cactusBSSN_r_base.gem5_se-m64', '/opt/spec2017/benchspec/CPU/507.cactuBSSN_r/run/run_base_refrate_gem5_se-m64.0000/spec_ref.par']
Workload-1: 
['/opt/spec2017/benchspec/CPU/507.cactuBSSN_r/run/run_base_refrate_gem5_se-m64.0000/cactusBSSN_r_base.gem5_se-m64', '/opt/spec2017/benchspec/CPU/507.cactuBSSN_r/run/run_base_refrate_gem5_se-m64.0000/spec_ref.par']
Workload-2: 
['/opt/spec2017/benchspec/CPU/507.cactuBSSN_r/run/run_base_refrate_gem5_se-m64.0000/cactusBSSN_r_base.gem5_se-m64', '/opt/spec2017/benchspec/CPU/507.cactuBSSN_r/run/run_base_refrate_gem5_se-m64.0000/spec_ref.par']
Workload-3: 
['/opt/spec2017/benchspec/CPU/507.cactuBSSN_r/run/run_base_refrate_gem5_se-m64.0000/cactusBSSN_r_base.gem5_se-m64', '/opt/spec2017/benchspec/CPU/507.cactuBSSN_r/run/run_base_refrate_gem5_se-m64.0000/spec_ref.par']
defense_enable:  True  detector:  MG  mitigation:  RFM  threshold:  800
mg_entries:  1700
rfm_maxacts_per_trefi:  79 rfm_per_trefi:  5 rfm_blast_radius:  2
Switch at curTick count:10000
warn: membus.master is deprecated. `master` is now called `mem_side_ports`
warn: No dot file generated. Please install pydot to generate the dot file and pdf.
info: Entering event queue @ 15859412819226.  Starting simulation...
warn: PowerState: Already in the requested power state, request ignored
Switched CPUS @ tick 15859412829226
switching cpus
**** REAL SIMULATION ****
info: Entering event queue @ 15859412829226.  Starting simulation...
15862746152559: Event_285: system.switch_cpus3 progress event, total committed:2718679, progress insts committed: 2718679, IPC: 0.271596
15862746152559: Event_284: system.switch_cpus2 progress event, total committed:2718503, progress insts committed: 2718503, IPC: 0.271578
15862746152559: Event_283: system.switch_cpus1 progress event, total committed:2718503, progress insts committed: 2718503, IPC: 0.271578
15862746152559: Event_282: system.switch_cpus0 progress event, total committed:2718503, progress insts committed: 2718503, IPC: 0.271578
15866079485892: Event_282: system.switch_cpus0 progress event, total committed:5207208, progress insts committed: 2488705, IPC: 0.248622
15866079485892: Event_283: system.switch_cpus1 progress event, total committed:5207208, progress insts committed: 2488705, IPC: 0.248622
15866079485892: Event_284: system.switch_cpus2 progress event, total committed:5207208, progress insts committed: 2488705, IPC: 0.248622
15866079485892: Event_285: system.switch_cpus3 progress event, total committed:5207208, progress insts committed: 2488529, IPC: 0.248604
15869412819225: Event_285: system.switch_cpus3 progress event, total committed:7970760, progress insts committed: 2763552, IPC: 0.276079
15869412819225: Event_284: system.switch_cpus2 progress event, total committed:7970760, progress insts committed: 2763552, IPC: 0.276079
15869412819225: Event_283: system.switch_cpus1 progress event, total committed:7970760, progress insts committed: 2763552, IPC: 0.276079
15869412819225: Event_282: system.switch_cpus0 progress event, total committed:7970672, progress insts committed: 2763464, IPC: 00.27607
15872746152558: Event_282: system.switch_cpus0 progress event, total committed:10807880, progress insts committed: 2837208, IPC: 0.283437
15872746152558: Event_283: system.switch_cpus1 progress event, total committed:10807880, progress insts committed: 2837120, IPC: 0.283428
15872746152558: Event_284: system.switch_cpus2 progress event, total committed:10807880, progress insts committed: 2837120, IPC: 0.283428
15872746152558: Event_285: system.switch_cpus3 progress event, total committed:10808056, progress insts committed: 2837296, IPC: 0.283446
15876079485891: Event_285: system.switch_cpus3 progress event, total committed:13437209, progress insts committed: 2629153, IPC: 0.262652
15876079485891: Event_284: system.switch_cpus2 progress event, total committed:13437121, progress insts committed: 2629241, IPC: 0.262661
15876079485891: Event_283: system.switch_cpus1 progress event, total committed:13436857, progress insts committed: 2628977, IPC: 0.262635
15876079485891: Event_282: system.switch_cpus0 progress event, total committed:13436857, progress insts committed: 2628977, IPC: 0.262635
15879412819224: Event_282: system.switch_cpus0 progress event, total committed:16036289, progress insts committed: 2599432, IPC: 0.259683
15879412819224: Event_283: system.switch_cpus1 progress event, total committed:16036289, progress insts committed: 2599432, IPC: 0.259683
15879412819224: Event_284: system.switch_cpus2 progress event, total committed:16036553, progress insts committed: 2599432, IPC: 0.259683
15879412819224: Event_285: system.switch_cpus3 progress event, total committed:16036553, progress insts committed: 2599344, IPC: 0.259674
15882746152557: Event_285: system.switch_cpus3 progress event, total committed:19746079, progress insts committed: 3709526, IPC: 0.370582
15882746152557: Event_284: system.switch_cpus2 progress event, total committed:19746079, progress insts committed: 3709526, IPC: 0.370582
15882746152557: Event_283: system.switch_cpus1 progress event, total committed:19746079, progress insts committed: 3709790, IPC: 0.370608
15882746152557: Event_282: system.switch_cpus0 progress event, total committed:19744541, progress insts committed: 3708252, IPC: 0.370454
15886079485890: Event_282: system.switch_cpus0 progress event, total committed:24467334, progress insts committed: 4722793, IPC: 0.471807
15886079485890: Event_283: system.switch_cpus1 progress event, total committed:24468574, progress insts committed: 4722495, IPC: 0.471777
15886079485890: Event_284: system.switch_cpus2 progress event, total committed:24469814, progress insts committed: 4723735, IPC: 0.471901
15886079485890: Event_285: system.switch_cpus3 progress event, total committed:24467340, progress insts committed: 4721261, IPC: 0.471654
15889412819223: Event_285: system.switch_cpus3 progress event, total committed:29217106, progress insts committed: 4749766, IPC: 0.474502
15889412819223: Event_284: system.switch_cpus2 progress event, total committed:29220313, progress insts committed: 4750499, IPC: 0.474575
15889412819223: Event_283: system.switch_cpus1 progress event, total committed:29220826, progress insts committed: 4752252, IPC: 00.47475
15889412819223: Event_282: system.switch_cpus0 progress event, total committed:29219586, progress insts committed: 4752252, IPC: 00.47475
15892746152556: Event_282: system.switch_cpus0 progress event, total committed:33934608, progress insts committed: 4715022, IPC: 0.471031
15892746152556: Event_283: system.switch_cpus1 progress event, total committed:33935848, progress insts committed: 4715022, IPC: 0.471031
15892746152556: Event_284: system.switch_cpus2 progress event, total committed:33935862, progress insts committed: 4715549, IPC: 0.471083
15892746152556: Event_285: system.switch_cpus3 progress event, total committed:33932128, progress insts committed: 4715022, IPC: 0.471031
15896079485889: Event_285: system.switch_cpus3 progress event, total committed:38677021, progress insts committed: 4744893, IPC: 0.474015
15896079485889: Event_284: system.switch_cpus2 progress event, total committed:38680678, progress insts committed: 4744816, IPC: 0.474007
15896079485889: Event_283: system.switch_cpus1 progress event, total committed:38676959, progress insts committed: 4741111, IPC: 0.473637
15896079485889: Event_282: system.switch_cpus0 progress event, total committed:38676958, progress insts committed: 4742350, IPC: 0.473761
15899412819222: Event_282: system.switch_cpus0 progress event, total committed:43405635, progress insts committed: 4728677, IPC: 0.472395
15899412819222: Event_283: system.switch_cpus1 progress event, total committed:43405635, progress insts committed: 4728676, IPC: 0.472395
15899412819222: Event_284: system.switch_cpus2 progress event, total committed:43408439, progress insts committed: 4727761, IPC: 0.472303
15899412819222: Event_285: system.switch_cpus3 progress event, total committed:43402817, progress insts committed: 4725796, IPC: 0.472107
15902746152555: Event_285: system.switch_cpus3 progress event, total committed:48141752, progress insts committed: 4738935, IPC: 00.47342
15902746152555: Event_284: system.switch_cpus2 progress event, total committed:48145472, progress insts committed: 4737033, IPC: 00.47323
15902746152555: Event_283: system.switch_cpus1 progress event, total committed:48141204, progress insts committed: 4735569, IPC: 0.473083
15902746152555: Event_282: system.switch_cpus0 progress event, total committed:48140521, progress insts committed: 4734886, IPC: 0.473015
15906079485888: Event_282: system.switch_cpus0 progress event, total committed:52863926, progress insts committed: 4723405, IPC: 0.471868
15906079485888: Event_283: system.switch_cpus1 progress event, total committed:52864250, progress insts committed: 4723046, IPC: 0.471832
15906079485888: Event_284: system.switch_cpus2 progress event, total committed:52869207, progress insts committed: 4723735, IPC: 0.471901
15906079485888: Event_285: system.switch_cpus3 progress event, total committed:52862992, progress insts committed: 4721240, IPC: 0.471652
15909412819221: Event_285: system.switch_cpus3 progress event, total committed:57652489, progress insts committed: 4789497, IPC: 0.478471
15909412819221: Event_284: system.switch_cpus2 progress event, total committed:57657472, progress insts committed: 4788265, IPC: 0.478348
15909412819221: Event_283: system.switch_cpus1 progress event, total committed:57651249, progress insts committed: 4786999, IPC: 0.478221
15909412819221: Event_282: system.switch_cpus0 progress event, total committed:57652489, progress insts committed: 4788563, IPC: 0.478377
15912746152554: Event_282: system.switch_cpus0 progress event, total committed:62389870, progress insts committed: 4737381, IPC: 0.473264
15912746152554: Event_283: system.switch_cpus1 progress event, total committed:62388621, progress insts committed: 4737372, IPC: 0.473263
15912746152554: Event_284: system.switch_cpus2 progress event, total committed:62393581, progress insts committed: 4736109, IPC: 0.473137
15912746152554: Event_285: system.switch_cpus3 progress event, total committed:62389641, progress insts committed: 4737152, IPC: 0.473241
15916079485887: Event_285: system.switch_cpus3 progress event, total committed:67122276, progress insts committed: 4732635, IPC: 00.47279
15916079485887: Event_284: system.switch_cpus2 progress event, total committed:67127236, progress insts committed: 4733655, IPC: 0.472892
15916079485887: Event_283: system.switch_cpus1 progress event, total committed:67123516, progress insts committed: 4734895, IPC: 0.473016
15916079485887: Event_282: system.switch_cpus0 progress event, total committed:67122296, progress insts committed: 4732426, IPC: 0.472769
15919412819220: Event_282: system.switch_cpus0 progress event, total committed:71857793, progress insts committed: 4735497, IPC: 0.473076
15919412819220: Event_283: system.switch_cpus1 progress event, total committed:71857153, progress insts committed: 4733637, IPC: 00.47289
15919412819220: Event_284: system.switch_cpus2 progress event, total committed:71857308, progress insts committed: 4730072, IPC: 0.472534
15919412819220: Event_285: system.switch_cpus3 progress event, total committed:71853433, progress insts committed: 4731157, IPC: 0.472643
15922746152553: Event_285: system.switch_cpus3 progress event, total committed:76597005, progress insts committed: 4743572, IPC: 0.473883
15922746152553: Event_284: system.switch_cpus2 progress event, total committed:76603972, progress insts committed: 4746664, IPC: 0.474192
15922746152553: Event_283: system.switch_cpus1 progress event, total committed:76604445, progress insts committed: 4747292, IPC: 0.474254
15922746152553: Event_282: system.switch_cpus0 progress event, total committed:76604459, progress insts committed: 4746666, IPC: 0.474192
15926079485886: Event_282: system.switch_cpus0 progress event, total committed:81299630, progress insts committed: 4695171, IPC: 0.469048
15926079485886: Event_283: system.switch_cpus1 progress event, total committed:81298391, progress insts committed: 4693946, IPC: 0.468925
15926079485886: Event_284: system.switch_cpus2 progress event, total committed:81298106, progress insts committed: 4694134, IPC: 0.468944
15926079485886: Event_285: system.switch_cpus3 progress event, total committed:81295895, progress insts committed: 4698890, IPC: 0.469419
15929412819219: Event_285: system.switch_cpus3 progress event, total committed:86045682, progress insts committed: 4749787, IPC: 0.474504
15929412819219: Event_284: system.switch_cpus2 progress event, total committed:86048162, progress insts committed: 4750056, IPC: 0.474531
15929412819219: Event_283: system.switch_cpus1 progress event, total committed:86049402, progress insts committed: 4751011, IPC: 0.474626
15929412819219: Event_282: system.switch_cpus0 progress event, total committed:86049414, progress insts committed: 4749784, IPC: 0.474503
15932746152552: Event_282: system.switch_cpus0 progress event, total committed:90755729, progress insts committed: 4706315, IPC: 0.470161
15932746152552: Event_283: system.switch_cpus1 progress event, total committed:90754808, progress insts committed: 4705406, IPC: 00.47007
15932746152552: Event_284: system.switch_cpus2 progress event, total committed:90759449, progress insts committed: 4711287, IPC: 0.470658
15932746152552: Event_285: system.switch_cpus3 progress event, total committed:90759449, progress insts committed: 4713767, IPC: 0.470905
15936079485885: Event_285: system.switch_cpus3 progress event, total committed:95467016, progress insts committed: 4707567, IPC: 0.470286
15936079485885: Event_284: system.switch_cpus2 progress event, total committed:95465790, progress insts committed: 4706341, IPC: 0.470163
15936079485885: Event_283: system.switch_cpus1 progress event, total committed:95461476, progress insts committed: 4706668, IPC: 0.470196
15936079485885: Event_282: system.switch_cpus0 progress event, total committed:95462056, progress insts committed: 4706327, IPC: 0.470162
15939412819218: Event_282: system.switch_cpus0 progress event, total committed:100178356, progress insts committed: 4716300, IPC: 0.471158
15939412819218: Event_283: system.switch_cpus1 progress event, total committed:100179576, progress insts committed: 4718100, IPC: 0.471338
15939412819218: Event_284: system.switch_cpus2 progress event, total committed:100182056, progress insts committed: 4716266, IPC: 0.471155
15939412819218: Event_285: system.switch_cpus3 progress event, total committed:100180816, progress insts committed: 4713800, IPC: 0.470909
15942746152551: Event_285: system.switch_cpus3 progress event, total committed:104882183, progress insts committed: 4701367, IPC: 0.469667
15942746152551: Event_284: system.switch_cpus2 progress event, total committed:104882183, progress insts committed: 4700127, IPC: 0.469543
15942746152551: Event_283: system.switch_cpus1 progress event, total committed:104884664, progress insts committed: 4705088, IPC: 0.470038
15942746152551: Event_282: system.switch_cpus0 progress event, total committed:104884518, progress insts committed: 4706162, IPC: 0.470146
15946079485884: Event_282: system.switch_cpus0 progress event, total committed:109607125, progress insts committed: 4722607, IPC: 0.471788
15946079485884: Event_283: system.switch_cpus1 progress event, total committed:109607125, progress insts committed: 4722461, IPC: 0.471774
15946079485884: Event_284: system.switch_cpus2 progress event, total committed:109603423, progress insts committed: 4721240, IPC: 0.471652
15946079485884: Event_285: system.switch_cpus3 progress event, total committed:109603405, progress insts committed: 4721222, IPC: 00.47165
15949412819217: Event_285: system.switch_cpus3 progress event, total committed:115346163, progress insts committed: 5742758, IPC: 0.573702
15949412819217: Event_284: system.switch_cpus2 progress event, total committed:115346163, progress insts committed: 5742740, IPC: 000.5737
15949412819217: Event_283: system.switch_cpus1 progress event, total committed:115351387, progress insts committed: 5744262, IPC: 0.573852
15949412819217: Event_282: system.switch_cpus0 progress event, total committed:115347495, progress insts committed: 5740370, IPC: 0.573463
15952746152550: Event_282: system.switch_cpus0 progress event, total committed:120453770, progress insts committed: 5106275, IPC: 0.510117
15952746152550: Event_283: system.switch_cpus1 progress event, total committed:120457982, progress insts committed: 5106595, IPC: 0.510149
15952746152550: Event_284: system.switch_cpus2 progress event, total committed:120452758, progress insts committed: 5106595, IPC: 0.510149
15952746152550: Event_285: system.switch_cpus3 progress event, total committed:120456010, progress insts committed: 5109847, IPC: 0.510474
15956079485883: Event_285: system.switch_cpus3 progress event, total committed:125705463, progress insts committed: 5249453, IPC: 00.52442
15956079485883: Event_284: system.switch_cpus2 progress event, total committed:125701898, progress insts committed: 5249140, IPC: 0.524389
15956079485883: Event_283: system.switch_cpus1 progress event, total committed:125705802, progress insts committed: 5247820, IPC: 0.524257
15956079485883: Event_282: system.switch_cpus0 progress event, total committed:125702557, progress insts committed: 5248787, IPC: 0.524354
15959412819216: Event_282: system.switch_cpus0 progress event, total committed:131005473, progress insts committed: 5302916, IPC: 0.529761
15959412819216: Event_283: system.switch_cpus1 progress event, total committed:131007354, progress insts committed: 5301552, IPC: 0.529625
15959412819216: Event_284: system.switch_cpus2 progress event, total committed:130997978, progress insts committed: 5296080, IPC: 0.529078
15959412819216: Event_285: system.switch_cpus3 progress event, total committed:131009678, progress insts committed: 5304215, IPC: 0.529891
15962746152549: Event_285: system.switch_cpus3 progress event, total committed:134151850, progress insts committed: 3142172, IPC: 0.313903
15962746152549: Event_284: system.switch_cpus2 progress event, total committed:134148858, progress insts committed: 3150880, IPC: 0.314773
15962746152549: Event_283: system.switch_cpus1 progress event, total committed:134154699, progress insts committed: 3147345, IPC: 00.31442
15962746152549: Event_282: system.switch_cpus0 progress event, total committed:134154700, progress insts committed: 3149227, IPC: 0.314608
15966079485882: Event_282: system.switch_cpus0 progress event, total committed:136469694, progress insts committed: 2314994, IPC: 0.231268
15966079485882: Event_283: system.switch_cpus1 progress event, total committed:136469694, progress insts committed: 2314995, IPC: 0.231268
15966079485882: Event_284: system.switch_cpus2 progress event, total committed:136463630, progress insts committed: 2314772, IPC: 0.231246
15966079485882: Event_285: system.switch_cpus3 progress event, total committed:136466656, progress insts committed: 2314806, IPC: 0.231249
15969412819215: Event_285: system.switch_cpus3 progress event, total committed:138792589, progress insts committed: 2325933, IPC: 0.232361
15969412819215: Event_284: system.switch_cpus2 progress event, total committed:138789557, progress insts committed: 2325927, IPC: 00.23236
15969412819215: Event_283: system.switch_cpus1 progress event, total committed:138795621, progress insts committed: 2325927, IPC: 00.23236
15969412819215: Event_282: system.switch_cpus0 progress event, total committed:138795615, progress insts committed: 2325921, IPC: 00.23236
15972746152548: Event_282: system.switch_cpus0 progress event, total committed:141112179, progress insts committed: 2316564, IPC: 0.231425
15972746152548: Event_283: system.switch_cpus1 progress event, total committed:141112185, progress insts committed: 2316564, IPC: 0.231425
15972746152548: Event_284: system.switch_cpus2 progress event, total committed:141106115, progress insts committed: 2316558, IPC: 0.231424
15972746152548: Event_285: system.switch_cpus3 progress event, total committed:141109147, progress insts committed: 2316558, IPC: 0.231424
15976079485881: Event_285: system.switch_cpus3 progress event, total committed:143432730, progress insts committed: 2323583, IPC: 0.232126
15976079485881: Event_284: system.switch_cpus2 progress event, total committed:143429698, progress insts committed: 2323583, IPC: 0.232126
15976079485881: Event_283: system.switch_cpus1 progress event, total committed:143435762, progress insts committed: 2323577, IPC: 0.232125
15976079485881: Event_282: system.switch_cpus0 progress event, total committed:143435762, progress insts committed: 2323583, IPC: 0.232126
15979412819214: Event_282: system.switch_cpus0 progress event, total committed:145762682, progress insts committed: 2326920, IPC: 0.232459
15979412819214: Event_283: system.switch_cpus1 progress event, total committed:145762682, progress insts committed: 2326920, IPC: 0.232459
15979412819214: Event_284: system.switch_cpus2 progress event, total committed:145756618, progress insts committed: 2326920, IPC: 0.232459
15979412819214: Event_285: system.switch_cpus3 progress event, total committed:145759650, progress insts committed: 2326920, IPC: 0.232459
15982746152547: Event_285: system.switch_cpus3 progress event, total committed:148073658, progress insts committed: 2314008, IPC: 0.231169
15982746152547: Event_284: system.switch_cpus2 progress event, total committed:148070606, progress insts committed: 2313988, IPC: 0.231167
15982746152547: Event_283: system.switch_cpus1 progress event, total committed:148076688, progress insts committed: 2314006, IPC: 0.231169
15982746152547: Event_282: system.switch_cpus0 progress event, total committed:148076682, progress insts committed: 2314000, IPC: 0.231169
15986079485880: Event_282: system.switch_cpus0 progress event, total committed:150391874, progress insts committed: 2315192, IPC: 0.231288
15986079485880: Event_283: system.switch_cpus1 progress event, total committed:150391874, progress insts committed: 2315186, IPC: 0.231287
15986079485880: Event_284: system.switch_cpus2 progress event, total committed:150385957, progress insts committed: 2315351, IPC: 0.231304
15986079485880: Event_285: system.switch_cpus3 progress event, total committed:150389004, progress insts committed: 2315346, IPC: 0.231303
15989412819213: Event_285: system.switch_cpus3 progress event, total committed:152709539, progress insts committed: 2320535, IPC: 0.231821
15989412819213: Event_284: system.switch_cpus2 progress event, total committed:152706507, progress insts committed: 2320550, IPC: 0.231823
15989412819213: Event_283: system.switch_cpus1 progress event, total committed:152712571, progress insts committed: 2320697, IPC: 0.231838
15989412819213: Event_282: system.switch_cpus0 progress event, total committed:152712571, progress insts committed: 2320697, IPC: 0.231838
15992746152546: Event_282: system.switch_cpus0 progress event, total committed:155042376, progress insts committed: 2329805, IPC: 0.232748
15992746152546: Event_283: system.switch_cpus1 progress event, total committed:155042377, progress insts committed: 2329806, IPC: 0.232748
15992746152546: Event_284: system.switch_cpus2 progress event, total committed:155036317, progress insts committed: 2329810, IPC: 0.232748
15992746152546: Event_285: system.switch_cpus3 progress event, total committed:155039344, progress insts committed: 2329805, IPC: 0.232748
15996079485879: Event_285: system.switch_cpus3 progress event, total committed:157366139, progress insts committed: 2326795, IPC: 0.232447
15996079485879: Event_284: system.switch_cpus2 progress event, total committed:157363107, progress insts committed: 2326790, IPC: 0.232446
15996079485879: Event_283: system.switch_cpus1 progress event, total committed:157369171, progress insts committed: 2326794, IPC: 0.232447
15996079485879: Event_282: system.switch_cpus0 progress event, total committed:157369171, progress insts committed: 2326795, IPC: 0.232447
15999412819212: Event_282: system.switch_cpus0 progress event, total committed:159691820, progress insts committed: 2322649, IPC: 0.232033
15999412819212: Event_283: system.switch_cpus1 progress event, total committed:159691820, progress insts committed: 2322649, IPC: 0.232033
15999412819212: Event_284: system.switch_cpus2 progress event, total committed:159685782, progress insts committed: 2322675, IPC: 0.232035
15999412819212: Event_285: system.switch_cpus3 progress event, total committed:159688857, progress insts committed: 2322718, IPC: 00.23204
16002746152545: Event_285: system.switch_cpus3 progress event, total committed:162011715, progress insts committed: 2322858, IPC: 0.232054
16002746152545: Event_284: system.switch_cpus2 progress event, total committed:162008448, progress insts committed: 2322666, IPC: 0.232034
16002746152545: Event_283: system.switch_cpus1 progress event, total committed:162014529, progress insts committed: 2322709, IPC: 0.232039
16002746152545: Event_282: system.switch_cpus0 progress event, total committed:162014512, progress insts committed: 2322692, IPC: 0.232037
16006079485878: Event_282: system.switch_cpus0 progress event, total committed:164340049, progress insts committed: 2325537, IPC: 0.232321
16006079485878: Event_283: system.switch_cpus1 progress event, total committed:164340049, progress insts committed: 2325520, IPC: 0.232319
16006079485878: Event_284: system.switch_cpus2 progress event, total committed:164333988, progress insts committed: 2325540, IPC: 0.232321
16006079485878: Event_285: system.switch_cpus3 progress event, total committed:164337043, progress insts committed: 2325328, IPC: 000.2323
16009412819211: Event_285: system.switch_cpus3 progress event, total committed:166657639, progress insts committed: 2320596, IPC: 0.231828
16009412819211: Event_284: system.switch_cpus2 progress event, total committed:166654598, progress insts committed: 2320610, IPC: 0.231829
16009412819211: Event_283: system.switch_cpus1 progress event, total committed:166660651, progress insts committed: 2320602, IPC: 0.231828
16009412819211: Event_282: system.switch_cpus0 progress event, total committed:166660665, progress insts committed: 2320616, IPC: 00.23183
16012746152544: Event_282: system.switch_cpus0 progress event, total committed:168981400, progress insts committed: 2320735, IPC: 0.231841
16012746152544: Event_283: system.switch_cpus1 progress event, total committed:168981395, progress insts committed: 2320744, IPC: 0.231842
16012746152544: Event_284: system.switch_cpus2 progress event, total committed:168975348, progress insts committed: 2320750, IPC: 0.231843
16012746152544: Event_285: system.switch_cpus3 progress event, total committed:168978368, progress insts committed: 2320729, IPC: 0.231841
16016079485877: Event_285: system.switch_cpus3 progress event, total committed:171298848, progress insts committed: 2320480, IPC: 0.231816
16016079485877: Event_284: system.switch_cpus2 progress event, total committed:171295816, progress insts committed: 2320468, IPC: 0.231815
16016079485877: Event_283: system.switch_cpus1 progress event, total committed:171301880, progress insts committed: 2320485, IPC: 0.231816
16016079485877: Event_282: system.switch_cpus0 progress event, total committed:171301880, progress insts committed: 2320480, IPC: 0.231816
16019412819210: Event_282: system.switch_cpus0 progress event, total committed:173623227, progress insts committed: 2321347, IPC: 0.231903
16019412819210: Event_283: system.switch_cpus1 progress event, total committed:173623191, progress insts committed: 2321311, IPC: 0.231899
16019412819210: Event_284: system.switch_cpus2 progress event, total committed:173617114, progress insts committed: 2321298, IPC: 0.231898
16019412819210: Event_285: system.switch_cpus3 progress event, total committed:173620347, progress insts committed: 2321499, IPC: 0.231918
16022746152543: Event_285: system.switch_cpus3 progress event, total committed:175939862, progress insts committed: 2319515, IPC: 00.23172
16022746152543: Event_284: system.switch_cpus2 progress event, total committed:175936833, progress insts committed: 2319719, IPC: 00.23174
16022746152543: Event_283: system.switch_cpus1 progress event, total committed:175942904, progress insts committed: 2319713, IPC: 0.231739
16022746152543: Event_282: system.switch_cpus0 progress event, total committed:175942912, progress insts committed: 2319685, IPC: 0.231737
16026079485876: Event_282: system.switch_cpus0 progress event, total committed:178263149, progress insts committed: 2320237, IPC: 0.231792
16026079485876: Event_283: system.switch_cpus1 progress event, total committed:178263149, progress insts committed: 2320245, IPC: 0.231792
16026079485876: Event_284: system.switch_cpus2 progress event, total committed:178257104, progress insts committed: 2320271, IPC: 0.231795
16026079485876: Event_285: system.switch_cpus3 progress event, total committed:178260164, progress insts committed: 2320302, IPC: 0.231798
16029412819209: Event_285: system.switch_cpus3 progress event, total committed:180588160, progress insts committed: 2327996, IPC: 0.232567
16029412819209: Event_284: system.switch_cpus2 progress event, total committed:180585055, progress insts committed: 2327951, IPC: 0.232562
16029412819209: Event_283: system.switch_cpus1 progress event, total committed:180591126, progress insts committed: 2327977, IPC: 0.232565
16029412819209: Event_282: system.switch_cpus0 progress event, total committed:180591126, progress insts committed: 2327977, IPC: 0.232565
16032746152542: Event_282: system.switch_cpus0 progress event, total committed:182919633, progress insts committed: 2328507, IPC: 0.232618
16032746152542: Event_283: system.switch_cpus1 progress event, total committed:182919633, progress insts committed: 2328507, IPC: 0.232618
16032746152542: Event_284: system.switch_cpus2 progress event, total committed:182913551, progress insts committed: 2328496, IPC: 0.232617
16032746152542: Event_285: system.switch_cpus3 progress event, total committed:182916583, progress insts committed: 2328423, IPC: 0.232609
16036079485875: Event_285: system.switch_cpus3 progress event, total committed:185237887, progress insts committed: 2321304, IPC: 0.231898
16036079485875: Event_284: system.switch_cpus2 progress event, total committed:185234855, progress insts committed: 2321304, IPC: 0.231898
16036079485875: Event_283: system.switch_cpus1 progress event, total committed:185241292, progress insts committed: 2321659, IPC: 0.231934
16036079485875: Event_282: system.switch_cpus0 progress event, total committed:185241292, progress insts committed: 2321659, IPC: 0.231934
16039412819208: Event_282: system.switch_cpus0 progress event, total committed:187561191, progress insts committed: 2319899, IPC: 0.231758
16039412819208: Event_283: system.switch_cpus1 progress event, total committed:187561191, progress insts committed: 2319899, IPC: 0.231758
16039412819208: Event_284: system.switch_cpus2 progress event, total committed:187555146, progress insts committed: 2320291, IPC: 0.231797
16039412819208: Event_285: system.switch_cpus3 progress event, total committed:187558167, progress insts committed: 2320280, IPC: 0.231796
16042746152541: Event_285: system.switch_cpus3 progress event, total committed:189882050, progress insts committed: 2323883, IPC: 0.232156
16042746152541: Event_284: system.switch_cpus2 progress event, total committed:189879018, progress insts committed: 2323872, IPC: 0.232155
16042746152541: Event_283: system.switch_cpus1 progress event, total committed:189885082, progress insts committed: 2323891, IPC: 0.232157
16042746152541: Event_282: system.switch_cpus0 progress event, total committed:189885082, progress insts committed: 2323891, IPC: 0.232157
16046079485874: Event_282: system.switch_cpus0 progress event, total committed:192204937, progress insts committed: 2319855, IPC: 0.231754
16046079485874: Event_283: system.switch_cpus1 progress event, total committed:192204937, progress insts committed: 2319855, IPC: 0.231754
16046079485874: Event_284: system.switch_cpus2 progress event, total committed:192198934, progress insts committed: 2319916, IPC: 00.23176
16046079485874: Event_285: system.switch_cpus3 progress event, total committed:192202428, progress insts committed: 2320378, IPC: 0.231806
16049412819207: Event_285: system.switch_cpus3 progress event, total committed:194529203, progress insts committed: 2326775, IPC: 0.232445
16049412819207: Event_284: system.switch_cpus2 progress event, total committed:194526171, progress insts committed: 2327237, IPC: 0.232491
16049412819207: Event_283: system.switch_cpus1 progress event, total committed:194532224, progress insts committed: 2327287, IPC: 0.232496
16049412819207: Event_282: system.switch_cpus0 progress event, total committed:194532227, progress insts committed: 2327290, IPC: 0.232496
16052746152540: Event_282: system.switch_cpus0 progress event, total committed:196856072, progress insts committed: 2323845, IPC: 0.232152
16052746152540: Event_283: system.switch_cpus1 progress event, total committed:196856070, progress insts committed: 2323846, IPC: 0.232152
16052746152540: Event_284: system.switch_cpus2 progress event, total committed:196850000, progress insts committed: 2323829, IPC: 0.232151
16052746152540: Event_285: system.switch_cpus3 progress event, total committed:196853032, progress insts committed: 2323829, IPC: 0.232151
16056079485873: Event_285: system.switch_cpus3 progress event, total committed:199176316, progress insts committed: 2323284, IPC: 0.232096
16056079485873: Event_284: system.switch_cpus2 progress event, total committed:199173297, progress insts committed: 2323297, IPC: 0.232097
16056079485873: Event_283: system.switch_cpus1 progress event, total committed:199179395, progress insts committed: 2323325, IPC: 000.2321
16056079485873: Event_282: system.switch_cpus0 progress event, total committed:199179395, progress insts committed: 2323323, IPC: 000.2321
16059412819206: Event_282: system.switch_cpus0 progress event, total committed:201501789, progress insts committed: 2322394, IPC: 0.232007
16059412819206: Event_283: system.switch_cpus1 progress event, total committed:201501795, progress insts committed: 2322400, IPC: 0.232008
16059412819206: Event_284: system.switch_cpus2 progress event, total committed:201495725, progress insts committed: 2322428, IPC: 0.232011
16059412819206: Event_285: system.switch_cpus3 progress event, total committed:201498763, progress insts committed: 2322447, IPC: 0.232012
16062746152539: Event_285: system.switch_cpus3 progress event, total committed:203826638, progress insts committed: 2327875, IPC: 0.232555
16062746152539: Event_284: system.switch_cpus2 progress event, total committed:203823539, progress insts committed: 2327814, IPC: 0.232549
16062746152539: Event_283: system.switch_cpus1 progress event, total committed:203830146, progress insts committed: 2328351, IPC: 0.232602
16062746152539: Event_282: system.switch_cpus0 progress event, total committed:203830146, progress insts committed: 2328357, IPC: 0.232603
16066079485872: Event_282: system.switch_cpus0 progress event, total committed:206147601, progress insts committed: 2317455, IPC: 0.231514
16066079485872: Event_283: system.switch_cpus1 progress event, total committed:206147601, progress insts committed: 2317455, IPC: 0.231514
16066079485872: Event_284: system.switch_cpus2 progress event, total committed:206141545, progress insts committed: 2318006, IPC: 0.231569
16066079485872: Event_285: system.switch_cpus3 progress event, total committed:206144569, progress insts committed: 2317931, IPC: 0.231561
16069412819205: Event_285: system.switch_cpus3 progress event, total committed:208474355, progress insts committed: 2329786, IPC: 0.232746
16069412819205: Event_284: system.switch_cpus2 progress event, total committed:208471323, progress insts committed: 2329778, IPC: 0.232745
16069412819205: Event_283: system.switch_cpus1 progress event, total committed:208477344, progress insts committed: 2329743, IPC: 0.232741
16069412819205: Event_282: system.switch_cpus0 progress event, total committed:208477387, progress insts committed: 2329786, IPC: 0.232746
16072746152538: Event_282: system.switch_cpus0 progress event, total committed:210794908, progress insts committed: 2317521, IPC: 00.23152
16072746152538: Event_283: system.switch_cpus1 progress event, total committed:210794902, progress insts committed: 2317558, IPC: 0.231524
16072746152538: Event_284: system.switch_cpus2 progress event, total committed:210788838, progress insts committed: 2317515, IPC: 00.23152
16072746152538: Event_285: system.switch_cpus3 progress event, total committed:210791870, progress insts committed: 2317515, IPC: 00.23152
16076079485871: Event_285: system.switch_cpus3 progress event, total committed:213115097, progress insts committed: 2323227, IPC: 00.23209
16076079485871: Event_284: system.switch_cpus2 progress event, total committed:213112047, progress insts committed: 2323209, IPC: 0.232089
16076079485871: Event_283: system.switch_cpus1 progress event, total committed:213118085, progress insts committed: 2323183, IPC: 0.232086
16076079485871: Event_282: system.switch_cpus0 progress event, total committed:213118132, progress insts committed: 2323224, IPC: 00.23209
16079412819204: Event_282: system.switch_cpus0 progress event, total committed:215435650, progress insts committed: 2317518, IPC: 00.23152
16079412819204: Event_283: system.switch_cpus1 progress event, total committed:215435650, progress insts committed: 2317565, IPC: 0.231525
16079412819204: Event_284: system.switch_cpus2 progress event, total committed:215429591, progress insts committed: 2317544, IPC: 0.231523
16079412819204: Event_285: system.switch_cpus3 progress event, total committed:215432696, progress insts committed: 2317599, IPC: 0.231528
16082746152537: Event_285: system.switch_cpus3 progress event, total committed:217753328, progress insts committed: 2320632, IPC: 0.231831
16082746152537: Event_284: system.switch_cpus2 progress event, total committed:217750324, progress insts committed: 2320733, IPC: 0.231841
16082746152537: Event_283: system.switch_cpus1 progress event, total committed:217756343, progress insts committed: 2320693, IPC: 0.231837
16082746152537: Event_282: system.switch_cpus0 progress event, total committed:217756182, progress insts committed: 2320532, IPC: 0.231821
16086079485870: Event_282: system.switch_cpus0 progress event, total committed:220080566, progress insts committed: 2324384, IPC: 0.232206
16086079485870: Event_283: system.switch_cpus1 progress event, total committed:220080566, progress insts committed: 2324223, IPC: 00.23219
16086079485870: Event_284: system.switch_cpus2 progress event, total committed:220074508, progress insts committed: 2324184, IPC: 0.232186
16086079485870: Event_285: system.switch_cpus3 progress event, total committed:220077534, progress insts committed: 2324206, IPC: 0.232188
16089412819203: Event_285: system.switch_cpus3 progress event, total committed:222395873, progress insts committed: 2318339, IPC: 0.231602
16089412819203: Event_284: system.switch_cpus2 progress event, total committed:222392824, progress insts committed: 2318316, IPC: 000.2316
16089412819203: Event_283: system.switch_cpus1 progress event, total committed:222398885, progress insts committed: 2318319, IPC: 000.2316
16089412819203: Event_282: system.switch_cpus0 progress event, total committed:222398805, progress insts committed: 2318239, IPC: 0.231592
16092746152536: Event_282: system.switch_cpus0 progress event, total committed:224722495, progress insts committed: 2323690, IPC: 0.232137
16092746152536: Event_283: system.switch_cpus1 progress event, total committed:224722527, progress insts committed: 2323642, IPC: 0.232132
16092746152536: Event_284: system.switch_cpus2 progress event, total committed:224716487, progress insts committed: 2323663, IPC: 0.232134
16092746152536: Event_285: system.switch_cpus3 progress event, total committed:224719602, progress insts committed: 2323729, IPC: 0.232141
16096079485869: Event_285: system.switch_cpus3 progress event, total committed:227033152, progress insts committed: 2313550, IPC: 0.231124
16096079485869: Event_284: system.switch_cpus2 progress event, total committed:227030130, progress insts committed: 2313643, IPC: 0.231133
16096079485869: Event_283: system.switch_cpus1 progress event, total committed:227036165, progress insts committed: 2313638, IPC: 0.231132
16096079485869: Event_282: system.switch_cpus0 progress event, total committed:227036209, progress insts committed: 2313714, IPC: 00.23114
16099412819202: Event_282: system.switch_cpus0 progress event, total committed:229373289, progress insts committed: 2337080, IPC: 0.233474
16099412819202: Event_283: system.switch_cpus1 progress event, total committed:229373289, progress insts committed: 2337124, IPC: 0.233479
16099412819202: Event_284: system.switch_cpus2 progress event, total committed:229367225, progress insts committed: 2337095, IPC: 0.233476
16099412819202: Event_285: system.switch_cpus3 progress event, total committed:229370257, progress insts committed: 2337105, IPC: 0.233477
16102746152535: Event_285: system.switch_cpus3 progress event, total committed:231699259, progress insts committed: 2329002, IPC: 0.232667
16102746152535: Event_284: system.switch_cpus2 progress event, total committed:231696219, progress insts committed: 2328994, IPC: 0.232667
16102746152535: Event_283: system.switch_cpus1 progress event, total committed:231702307, progress insts committed: 2329018, IPC: 0.232669
16102746152535: Event_282: system.switch_cpus0 progress event, total committed:231702300, progress insts committed: 2329011, IPC: 0.232668
16106079485868: Event_282: system.switch_cpus0 progress event, total committed:234019527, progress insts committed: 2317227, IPC: 0.231491
16106079485868: Event_283: system.switch_cpus1 progress event, total committed:234019527, progress insts committed: 2317220, IPC: 00.23149
16106079485868: Event_284: system.switch_cpus2 progress event, total committed:234013466, progress insts committed: 2317247, IPC: 0.231493
16106079485868: Event_285: system.switch_cpus3 progress event, total committed:234016495, progress insts committed: 2317236, IPC: 0.231492
16109412819201: Event_285: system.switch_cpus3 progress event, total committed:236342425, progress insts committed: 2325930, IPC: 00.23236
16109412819201: Event_284: system.switch_cpus2 progress event, total committed:236339377, progress insts committed: 2325911, IPC: 0.232359
16109412819201: Event_283: system.switch_cpus1 progress event, total committed:236345468, progress insts committed: 2325941, IPC: 0.232362
16109412819201: Event_282: system.switch_cpus0 progress event, total committed:236345466, progress insts committed: 2325939, IPC: 0.232361
16112746152534: Event_282: system.switch_cpus0 progress event, total committed:238661091, progress insts committed: 2315625, IPC: 0.231331
16112746152534: Event_283: system.switch_cpus1 progress event, total committed:238661091, progress insts committed: 2315623, IPC: 0.231331
16112746152534: Event_284: system.switch_cpus2 progress event, total committed:238655027, progress insts committed: 2315650, IPC: 0.231333
16112746152534: Event_285: system.switch_cpus3 progress event, total committed:238658059, progress insts committed: 2315634, IPC: 0.231332
16116079485867: Event_285: system.switch_cpus3 progress event, total committed:240975103, progress insts committed: 2317044, IPC: 0.231473
16116079485867: Event_284: system.switch_cpus2 progress event, total committed:240972071, progress insts committed: 2317044, IPC: 0.231473
16116079485867: Event_283: system.switch_cpus1 progress event, total committed:240978104, progress insts committed: 2317013, IPC: 00.23147
16116079485867: Event_282: system.switch_cpus0 progress event, total committed:240978088, progress insts committed: 2316997, IPC: 0.231468
16119412819200: Event_282: system.switch_cpus0 progress event, total committed:243302430, progress insts committed: 2324342, IPC: 0.232202
16119412819200: Event_283: system.switch_cpus1 progress event, total committed:243302430, progress insts committed: 2324326, IPC: 000.2322
16119412819200: Event_284: system.switch_cpus2 progress event, total committed:243296366, progress insts committed: 2324295, IPC: 0.232197
16119412819200: Event_285: system.switch_cpus3 progress event, total committed:243299398, progress insts committed: 2324295, IPC: 0.232197
16122746152533: Event_285: system.switch_cpus3 progress event, total committed:245626534, progress insts committed: 2327136, IPC: 0.232481
16122746152533: Event_284: system.switch_cpus2 progress event, total committed:245623502, progress insts committed: 2327136, IPC: 0.232481
16122746152533: Event_283: system.switch_cpus1 progress event, total committed:245629587, progress insts committed: 2327157, IPC: 0.232483
16122746152533: Event_282: system.switch_cpus0 progress event, total committed:245629587, progress insts committed: 2327157, IPC: 0.232483
16126079485866: Event_282: system.switch_cpus0 progress event, total committed:247951119, progress insts committed: 2321532, IPC: 0.231921
16126079485866: Event_283: system.switch_cpus1 progress event, total committed:247951320, progress insts committed: 2321733, IPC: 0.231941
16126079485866: Event_284: system.switch_cpus2 progress event, total committed:247945044, progress insts committed: 2321542, IPC: 0.231922
16126079485866: Event_285: system.switch_cpus3 progress event, total committed:247948070, progress insts committed: 2321536, IPC: 0.231921
16129412819199: Event_285: system.switch_cpus3 progress event, total committed:250268502, progress insts committed: 2320432, IPC: 0.231811
16129412819199: Event_284: system.switch_cpus2 progress event, total committed:250265452, progress insts committed: 2320408, IPC: 0.231809
16129412819199: Event_283: system.switch_cpus1 progress event, total committed:250271583, progress insts committed: 2320263, IPC: 0.231794
16129412819199: Event_282: system.switch_cpus0 progress event, total committed:250274566, progress insts committed: 2323447, IPC: 0.232112
16132746152532: Event_282: system.switch_cpus0 progress event, total committed:252600213, progress insts committed: 2325647, IPC: 0.232332
16132746152532: Event_283: system.switch_cpus1 progress event, total committed:252597224, progress insts committed: 2325641, IPC: 0.232332
16132746152532: Event_284: system.switch_cpus2 progress event, total committed:252591142, progress insts committed: 2325690, IPC: 0.232336
16132746152532: Event_285: system.switch_cpus3 progress event, total committed:252594340, progress insts committed: 2325838, IPC: 0.232351
16136079485865: Event_285: system.switch_cpus3 progress event, total committed:254920890, progress insts committed: 2326550, IPC: 0.232422
16136079485865: Event_284: system.switch_cpus2 progress event, total committed:254917858, progress insts committed: 2326716, IPC: 0.232439
16136079485865: Event_283: system.switch_cpus1 progress event, total committed:254923922, progress insts committed: 2326698, IPC: 0.232437
16136079485865: Event_282: system.switch_cpus0 progress event, total committed:254926954, progress insts committed: 2326741, IPC: 0.232441
16139412819198: Event_282: system.switch_cpus0 progress event, total committed:257256683, progress insts committed: 2329729, IPC: 00.23274
16139412819198: Event_283: system.switch_cpus1 progress event, total committed:257253651, progress insts committed: 2329729, IPC: 00.23274
16139412819198: Event_284: system.switch_cpus2 progress event, total committed:257247587, progress insts committed: 2329729, IPC: 00.23274
16139412819198: Event_285: system.switch_cpus3 progress event, total committed:257250619, progress insts committed: 2329729, IPC: 00.23274
16142746152531: Event_285: system.switch_cpus3 progress event, total committed:259578344, progress insts committed: 2327725, IPC: 00.23254
16142746152531: Event_284: system.switch_cpus2 progress event, total committed:259575256, progress insts committed: 2327669, IPC: 0.232534
16142746152531: Event_283: system.switch_cpus1 progress event, total committed:259581321, progress insts committed: 2327670, IPC: 0.232534
16142746152531: Event_282: system.switch_cpus0 progress event, total committed:259584383, progress insts committed: 2327700, IPC: 0.232537
16146079485864: Event_282: system.switch_cpus0 progress event, total committed:261910146, progress insts committed: 2325763, IPC: 0.232344
16146079485864: Event_283: system.switch_cpus1 progress event, total committed:261907117, progress insts committed: 2325796, IPC: 0.232347
16146079485864: Event_284: system.switch_cpus2 progress event, total committed:261901050, progress insts committed: 2325794, IPC: 0.232347
16146079485864: Event_285: system.switch_cpus3 progress event, total committed:261904082, progress insts committed: 2325738, IPC: 0.232341
16149412819197: Event_285: system.switch_cpus3 progress event, total committed:264234069, progress insts committed: 2329987, IPC: 0.232766
16149412819197: Event_284: system.switch_cpus2 progress event, total committed:264230884, progress insts committed: 2329834, IPC: 00.23275
16149412819197: Event_283: system.switch_cpus1 progress event, total committed:264236948, progress insts committed: 2329831, IPC: 00.23275
16149412819197: Event_282: system.switch_cpus0 progress event, total committed:264239980, progress insts committed: 2329834, IPC: 00.23275
16152746152530: Event_282: system.switch_cpus0 progress event, total committed:266563492, progress insts committed: 2323512, IPC: 0.232119
16152746152530: Event_283: system.switch_cpus1 progress event, total committed:266560460, progress insts committed: 2323512, IPC: 0.232119
16152746152530: Event_284: system.switch_cpus2 progress event, total committed:266554396, progress insts committed: 2323512, IPC: 0.232119
16152746152530: Event_285: system.switch_cpus3 progress event, total committed:266557422, progress insts committed: 2323353, IPC: 0.232103
16156079485863: Event_285: system.switch_cpus3 progress event, total committed:268887425, progress insts committed: 2330003, IPC: 0.232767
16156079485863: Event_284: system.switch_cpus2 progress event, total committed:268884393, progress insts committed: 2329997, IPC: 0.232767
16156079485863: Event_283: system.switch_cpus1 progress event, total committed:268890461, progress insts committed: 2330001, IPC: 0.232767
16156079485863: Event_282: system.switch_cpus0 progress event, total committed:268893493, progress insts committed: 2330001, IPC: 0.232767
16159412819196: Event_282: system.switch_cpus0 progress event, total committed:271223299, progress insts committed: 2329806, IPC: 0.232748
16159412819196: Event_283: system.switch_cpus1 progress event, total committed:271220267, progress insts committed: 2329806, IPC: 0.232748
16159412819196: Event_284: system.switch_cpus2 progress event, total committed:271214203, progress insts committed: 2329810, IPC: 0.232748
16159412819196: Event_285: system.switch_cpus3 progress event, total committed:271217235, progress insts committed: 2329810, IPC: 0.232748
16162746152529: Event_285: system.switch_cpus3 progress event, total committed:273543799, progress insts committed: 2326564, IPC: 0.232424
16162746152529: Event_284: system.switch_cpus2 progress event, total committed:273540767, progress insts committed: 2326564, IPC: 0.232424
16162746152529: Event_283: system.switch_cpus1 progress event, total committed:273546828, progress insts committed: 2326561, IPC: 0.232423
16162746152529: Event_282: system.switch_cpus0 progress event, total committed:273549860, progress insts committed: 2326561, IPC: 0.232423
16166079485862: Event_282: system.switch_cpus0 progress event, total committed:275867768, progress insts committed: 2317908, IPC: 0.231559
16166079485862: Event_283: system.switch_cpus1 progress event, total committed:275864736, progress insts committed: 2317908, IPC: 0.231559
16166079485862: Event_284: system.switch_cpus2 progress event, total committed:275858515, progress insts committed: 2317748, IPC: 0.231543
16166079485862: Event_285: system.switch_cpus3 progress event, total committed:275861547, progress insts committed: 2317748, IPC: 0.231543
16169412819195: Event_285: system.switch_cpus3 progress event, total committed:278190171, progress insts committed: 2328624, IPC: 00.23263
16169412819195: Event_284: system.switch_cpus2 progress event, total committed:278187145, progress insts committed: 2328630, IPC: 00.23263
16169412819195: Event_283: system.switch_cpus1 progress event, total committed:278193209, progress insts committed: 2328473, IPC: 0.232614
16169412819195: Event_282: system.switch_cpus0 progress event, total committed:278196241, progress insts committed: 2328473, IPC: 0.232614
16172746152528: Event_282: system.switch_cpus0 progress event, total committed:280542843, progress insts committed: 2346602, IPC: 0.234426
16172746152528: Event_283: system.switch_cpus1 progress event, total committed:280539843, progress insts committed: 2346634, IPC: 0.234429
16172746152528: Event_284: system.switch_cpus2 progress event, total committed:280533856, progress insts committed: 2346711, IPC: 0.234436
16172746152528: Event_285: system.switch_cpus3 progress event, total committed:280536905, progress insts committed: 2346734, IPC: 0.234439
16176079485861: Event_285: system.switch_cpus3 progress event, total committed:282866121, progress insts committed: 2329216, IPC: 0.232689
16176079485861: Event_284: system.switch_cpus2 progress event, total committed:282863557, progress insts committed: 2329701, IPC: 0.232737
16176079485861: Event_283: system.switch_cpus1 progress event, total committed:282869153, progress insts committed: 2329310, IPC: 0.232698
16176079485861: Event_282: system.switch_cpus0 progress event, total committed:282872185, progress insts committed: 2329342, IPC: 0.232701
16179412819194: Event_282: system.switch_cpus0 progress event, total committed:285200392, progress insts committed: 2328207, IPC: 0.232588
16179412819194: Event_283: system.switch_cpus1 progress event, total committed:285197342, progress insts committed: 2328189, IPC: 0.232586
16179412819194: Event_284: system.switch_cpus2 progress event, total committed:285191278, progress insts committed: 2327721, IPC: 0.232539
16179412819194: Event_285: system.switch_cpus3 progress event, total committed:285194310, progress insts committed: 2328189, IPC: 0.232586
16182746152527: Event_285: system.switch_cpus3 progress event, total committed:287516900, progress insts committed: 2322590, IPC: 0.232027
16182746152527: Event_284: system.switch_cpus2 progress event, total committed:287513807, progress insts committed: 2322529, IPC: 0.232021
16182746152527: Event_283: system.switch_cpus1 progress event, total committed:287519859, progress insts committed: 2322517, IPC: 0.232019
16182746152527: Event_282: system.switch_cpus0 progress event, total committed:287522891, progress insts committed: 2322499, IPC: 0.232018
16186079485860: Event_282: system.switch_cpus0 progress event, total committed:289849659, progress insts committed: 2326768, IPC: 0.232444
16186079485860: Event_283: system.switch_cpus1 progress event, total committed:289846548, progress insts committed: 2326689, IPC: 0.232436
16186079485860: Event_284: system.switch_cpus2 progress event, total committed:289840625, progress insts committed: 2326818, IPC: 0.232449
16186079485860: Event_285: system.switch_cpus3 progress event, total committed:289843577, progress insts committed: 2326677, IPC: 0.232435
16189412819193: Event_285: system.switch_cpus3 progress event, total committed:292177395, progress insts committed: 2333818, IPC: 0.233148
16189412819193: Event_284: system.switch_cpus2 progress event, total committed:292174345, progress insts committed: 2333720, IPC: 0.233139
16189412819193: Event_283: system.switch_cpus1 progress event, total committed:292180432, progress insts committed: 2333884, IPC: 0.233155
16189412819193: Event_282: system.switch_cpus0 progress event, total committed:292183459, progress insts committed: 2333800, IPC: 0.233147
16192746152526: Event_282: system.switch_cpus0 progress event, total committed:294510008, progress insts committed: 2326549, IPC: 0.232422
16192746152526: Event_283: system.switch_cpus1 progress event, total committed:294503952, progress insts committed: 2323520, IPC: 00.23212
16192746152526: Event_284: system.switch_cpus2 progress event, total committed:294497862, progress insts committed: 2323517, IPC: 0.232119
16192746152526: Event_285: system.switch_cpus3 progress event, total committed:294500920, progress insts committed: 2323525, IPC: 00.23212
16196079485859: Event_285: system.switch_cpus3 progress event, total committed:296821157, progress insts committed: 2320237, IPC: 0.231792
16196079485859: Event_284: system.switch_cpus2 progress event, total committed:296818144, progress insts committed: 2320282, IPC: 0.231796
16196079485859: Event_283: system.switch_cpus1 progress event, total committed:296824189, progress insts committed: 2320237, IPC: 0.231792
16196079485859: Event_282: system.switch_cpus0 progress event, total committed:296830287, progress insts committed: 2320279, IPC: 0.231796
16199412819192: Event_282: system.switch_cpus0 progress event, total committed:299161875, progress insts committed: 2331588, IPC: 0.232926
16199412819192: Event_283: system.switch_cpus1 progress event, total committed:299155811, progress insts committed: 2331622, IPC: 0.232929
16199412819192: Event_284: system.switch_cpus2 progress event, total committed:299149818, progress insts committed: 2331674, IPC: 0.232934
16199412819192: Event_285: system.switch_cpus3 progress event, total committed:299153138, progress insts committed: 2331981, IPC: 0.232965
16202746152525: Event_285: system.switch_cpus3 progress event, total committed:301477374, progress insts committed: 2324236, IPC: 0.232191
16202746152525: Event_284: system.switch_cpus2 progress event, total committed:301474316, progress insts committed: 2324498, IPC: 0.232217
16202746152525: Event_283: system.switch_cpus1 progress event, total committed:301480412, progress insts committed: 2324601, IPC: 0.232228
16202746152525: Event_282: system.switch_cpus0 progress event, total committed:301486462, progress insts committed: 2324587, IPC: 0.232226
16206079485858: Event_282: system.switch_cpus0 progress event, total committed:303810931, progress insts committed: 2324469, IPC: 0.232214
16206079485858: Event_283: system.switch_cpus1 progress event, total committed:303804867, progress insts committed: 2324455, IPC: 0.232213
16206079485858: Event_284: system.switch_cpus2 progress event, total committed:303798785, progress insts committed: 2324469, IPC: 0.232214
16206079485858: Event_285: system.switch_cpus3 progress event, total committed:303801863, progress insts committed: 2324489, IPC: 0.232216
16209412819191: Event_285: system.switch_cpus3 progress event, total committed:306128922, progress insts committed: 2327059, IPC: 0.232473
16209412819191: Event_284: system.switch_cpus2 progress event, total committed:306125862, progress insts committed: 2327077, IPC: 0.232475
16209412819191: Event_283: system.switch_cpus1 progress event, total committed:306131943, progress insts committed: 2327076, IPC: 0.232475
16209412819191: Event_282: system.switch_cpus0 progress event, total committed:306138024, progress insts committed: 2327093, IPC: 0.232477
16212746152524: Event_282: system.switch_cpus0 progress event, total committed:308466608, progress insts committed: 2328584, IPC: 0.232626
16212746152524: Event_283: system.switch_cpus1 progress event, total committed:308460523, progress insts committed: 2328580, IPC: 0.232625
16212746152524: Event_284: system.switch_cpus2 progress event, total committed:308454445, progress insts committed: 2328583, IPC: 0.232625
16212746152524: Event_285: system.switch_cpus3 progress event, total committed:308457700, progress insts committed: 2328778, IPC: 0.232645
16216079485857: Event_285: system.switch_cpus3 progress event, total committed:310783647, progress insts committed: 2325947, IPC: 0.232362
16216079485857: Event_284: system.switch_cpus2 progress event, total committed:310780286, progress insts committed: 2325841, IPC: 0.232352
16216079485857: Event_283: system.switch_cpus1 progress event, total committed:310786562, progress insts committed: 2326039, IPC: 0.232371
16216079485857: Event_282: system.switch_cpus0 progress event, total committed:310792767, progress insts committed: 2326159, IPC: 0.232383
16219412819190: Event_282: system.switch_cpus0 progress event, total committed:313114543, progress insts committed: 2321776, IPC: 0.231945
16219412819190: Event_283: system.switch_cpus1 progress event, total committed:313108470, progress insts committed: 2321908, IPC: 0.231959
16219412819190: Event_284: system.switch_cpus2 progress event, total committed:313102409, progress insts committed: 2322123, IPC: 00.23198
16219412819190: Event_285: system.switch_cpus3 progress event, total committed:313105441, progress insts committed: 2321794, IPC: 0.231947
16222746152523: Event_285: system.switch_cpus3 progress event, total committed:315441284, progress insts committed: 2335843, IPC: 0.233351
16222746152523: Event_284: system.switch_cpus2 progress event, total committed:315438252, progress insts committed: 2335843, IPC: 0.233351
16222746152523: Event_283: system.switch_cpus1 progress event, total committed:315443216, progress insts committed: 2334746, IPC: 0.233241
16222746152523: Event_282: system.switch_cpus0 progress event, total committed:315449644, progress insts committed: 2335101, IPC: 0.233277
16226079485856: Event_282: system.switch_cpus0 progress event, total committed:317777508, progress insts committed: 2327864, IPC: 0.232554
16226079485856: Event_283: system.switch_cpus1 progress event, total committed:317771427, progress insts committed: 2328211, IPC: 0.232588
16226079485856: Event_284: system.switch_cpus2 progress event, total committed:317765368, progress insts committed: 2327116, IPC: 0.232479
16226079485856: Event_285: system.switch_cpus3 progress event, total committed:317768400, progress insts committed: 2327116, IPC: 0.232479
16229412819189: Event_285: system.switch_cpus3 progress event, total committed:320098001, progress insts committed: 2329601, IPC: 0.232727
16229412819189: Event_284: system.switch_cpus2 progress event, total committed:320094972, progress insts committed: 2329604, IPC: 0.232727
16229412819189: Event_283: system.switch_cpus1 progress event, total committed:320101033, progress insts committed: 2329606, IPC: 0.232728
16229412819189: Event_282: system.switch_cpus0 progress event, total committed:320107097, progress insts committed: 2329589, IPC: 0.232726
16232746152522: Event_282: system.switch_cpus0 progress event, total committed:322443052, progress insts committed: 2335955, IPC: 0.233362
16232746152522: Event_283: system.switch_cpus1 progress event, total committed:322436529, progress insts committed: 2335496, IPC: 0.233316
16232746152522: Event_284: system.switch_cpus2 progress event, total committed:322430380, progress insts committed: 2335408, IPC: 0.233307
16232746152522: Event_285: system.switch_cpus3 progress event, total committed:322433526, progress insts committed: 2335525, IPC: 0.233319
16236079485855: Event_285: system.switch_cpus3 progress event, total committed:324759597, progress insts committed: 2326071, IPC: 0.232374
16236079485855: Event_284: system.switch_cpus2 progress event, total committed:324756411, progress insts committed: 2326031, IPC: 00.23237
16236079485855: Event_283: system.switch_cpus1 progress event, total committed:324762283, progress insts committed: 2325754, IPC: 0.232343
16236079485855: Event_282: system.switch_cpus0 progress event, total committed:324768552, progress insts committed: 2325500, IPC: 0.232317
16239412819188: Event_282: system.switch_cpus0 progress event, total committed:327094354, progress insts committed: 2325802, IPC: 0.232348
16239412819188: Event_283: system.switch_cpus1 progress event, total committed:327088134, progress insts committed: 2325851, IPC: 0.232353
16239412819188: Event_284: system.switch_cpus2 progress event, total committed:327082056, progress insts committed: 2325645, IPC: 0.232332
16239412819188: Event_285: system.switch_cpus3 progress event, total committed:327085238, progress insts committed: 2325641, IPC: 0.232332
16242746152521: Event_285: system.switch_cpus3 progress event, total committed:329415832, progress insts committed: 2330594, IPC: 0.232826
16242746152521: Event_284: system.switch_cpus2 progress event, total committed:329412800, progress insts committed: 2330744, IPC: 0.232841
16242746152521: Event_283: system.switch_cpus1 progress event, total committed:329418838, progress insts committed: 2330704, IPC: 0.232837
16242746152521: Event_282: system.switch_cpus0 progress event, total committed:329425128, progress insts committed: 2330774, IPC: 0.232844
16246079485854: Event_282: system.switch_cpus0 progress event, total committed:331752685, progress insts committed: 2327557, IPC: 0.232523
16246079485854: Event_283: system.switch_cpus1 progress event, total committed:331746572, progress insts committed: 2327734, IPC: 0.232541
16246079485854: Event_284: system.switch_cpus2 progress event, total committed:331740956, progress insts committed: 2328156, IPC: 0.232583
16246079485854: Event_285: system.switch_cpus3 progress event, total committed:331743988, progress insts committed: 2328156, IPC: 0.232583
16249412819187: Event_285: system.switch_cpus3 progress event, total committed:334070788, progress insts committed: 2326800, IPC: 0.232447
16249412819187: Event_284: system.switch_cpus2 progress event, total committed:334067756, progress insts committed: 2326800, IPC: 0.232447
16249412819187: Event_283: system.switch_cpus1 progress event, total committed:334073818, progress insts committed: 2327246, IPC: 0.232492
16249412819187: Event_282: system.switch_cpus0 progress event, total committed:334079882, progress insts committed: 2327197, IPC: 0.232487
16252746152520: Event_282: system.switch_cpus0 progress event, total committed:336406877, progress insts committed: 2326995, IPC: 0.232467
16252746152520: Event_283: system.switch_cpus1 progress event, total committed:336400813, progress insts committed: 2326995, IPC: 0.232467
16252746152520: Event_284: system.switch_cpus2 progress event, total committed:336394749, progress insts committed: 2326993, IPC: 0.232467
16252746152520: Event_285: system.switch_cpus3 progress event, total committed:336397781, progress insts committed: 2326993, IPC: 0.232467
16256079485853: Event_285: system.switch_cpus3 progress event, total committed:338735017, progress insts committed: 2337236, IPC: 00.23349
16256079485853: Event_284: system.switch_cpus2 progress event, total committed:338731996, progress insts committed: 2337247, IPC: 0.233491
16256079485853: Event_283: system.switch_cpus1 progress event, total committed:338737818, progress insts committed: 2337005, IPC: 0.233467
16256079485853: Event_282: system.switch_cpus0 progress event, total committed:338744085, progress insts committed: 2337208, IPC: 0.233487
16259412819186: Event_282: system.switch_cpus0 progress event, total committed:341072422, progress insts committed: 2328337, IPC: 0.232601
16259412819186: Event_283: system.switch_cpus1 progress event, total committed:341065917, progress insts committed: 2328099, IPC: 0.232577
16259412819186: Event_284: system.switch_cpus2 progress event, total committed:341060276, progress insts committed: 2328280, IPC: 0.232595
16259412819186: Event_285: system.switch_cpus3 progress event, total committed:341063322, progress insts committed: 2328305, IPC: 0.232598
16262746152519: Event_285: system.switch_cpus3 progress event, total committed:343390108, progress insts committed: 2326786, IPC: 0.232446
16262746152519: Event_284: system.switch_cpus2 progress event, total committed:343387076, progress insts committed: 2326800, IPC: 0.232447
16262746152519: Event_283: system.switch_cpus1 progress event, total committed:343393140, progress insts committed: 2327223, IPC: 00.23249
16262746152519: Event_282: system.switch_cpus0 progress event, total committed:343399228, progress insts committed: 2326806, IPC: 0.232448
16266079485852: Event_282: system.switch_cpus0 progress event, total committed:345725530, progress insts committed: 2326302, IPC: 0.232398
16266079485852: Event_283: system.switch_cpus1 progress event, total committed:345719507, progress insts committed: 2326367, IPC: 0.232404
16266079485852: Event_284: system.switch_cpus2 progress event, total committed:345713384, progress insts committed: 2326308, IPC: 0.232398
16266079485852: Event_285: system.switch_cpus3 progress event, total committed:345716432, progress insts committed: 2326324, IPC: 000.2324
16269412819185: Event_285: system.switch_cpus3 progress event, total committed:348040960, progress insts committed: 2324528, IPC: 00.23222
16269412819185: Event_284: system.switch_cpus2 progress event, total committed:348037928, progress insts committed: 2324544, IPC: 0.232222
16269412819185: Event_283: system.switch_cpus1 progress event, total committed:348043997, progress insts committed: 2324490, IPC: 0.232217
16269412819185: Event_282: system.switch_cpus0 progress event, total committed:348050079, progress insts committed: 2324549, IPC: 0.232222
Exiting @ tick 16271857805715 because a thread reached the max instruction count
