Command line:
./runscript_pride.sh mix6 RFM1.BR1.4C 4 2017 --rh_defense --rh_mitigation=RFM --rh_rfm_per_trefi=1 --rh_rfm_blast_radius=1 --rh_rfm_maxacts_per_trefi=79
Global frequency set at 1000000000000 ticks per second
RFM details - rfm_act_threshold: 79, blast_radius: 1, delay_per_rfm: 175000 ps. sample_rate: 0.012500
RH Defense config: RFM, Bus Delay: 0, rfms_per_trefi: 1, rfm_act_threshold: 79, blast_radius: 1,rfm_delay_per_act: 45000 ps.
DRAM config: RowsPerBank: 65536, BanksPerRank: 32, RanksPerChannel: 1
warn: Sockets disabled, not accepting gdb connections
warn: CoherentXBar system.cpu0.mmucache.mmubus has no snooping ports attached!
warn: CoherentXBar system.cpu1.mmucache.mmubus has no snooping ports attached!
warn: CoherentXBar system.cpu2.mmucache.mmubus has no snooping ports attached!
warn: CoherentXBar system.cpu3.mmucache.mmubus has no snooping ports attached!
warn: Checkpoints for file descriptors currently do not work.
warn: Checkpoints for file descriptors currently do not work.
warn: Checkpoints for file descriptors currently do not work.
warn: Checkpoints for file descriptors currently do not work.
gem5 Simulator System.  http://gem5.org
gem5 is copyrighted software; use the --copyright option for details.

gem5 version 20.1.0.5
gem5 compiled Jul 12 2024 12:42:38
gem5 started Jul 31 2024 15:37:59
gem5 executing on a07dda8b130c, pid 238853
command line: /home/user/PrIDE/performance/gem5/build/X86/gem5.opt --outdir=/home/user/PrIDE/performance/gem5/stats/pride_multiprogram_16GBmem_250Mn.SPEC2017.C4/RFM1.BR1.4C/mix6 /home/user/PrIDE/performance/gem5/configs/example/se_rq_spec_config_multicore.py --redirects /lib64=/home/utils/gcc-6.2.0/lib64 --benchmark=mix6 --benchmark_stdout=/home/user/PrIDE/performance/gem5/stats/pride_multiprogram_16GBmem_250Mn.SPEC2017.C4/RFM1.BR1.4C/mix6/mix6.out --benchmark_stderr=/home/user/PrIDE/performance/gem5/stats/pride_multiprogram_16GBmem_250Mn.SPEC2017.C4/RFM1.BR1.4C/mix6/mix6.err --spec-version=2017 --rh_defense --rh_mitigation=RFM --rh_rfm_per_trefi=1 --rh_rfm_blast_radius=1 --rh_rfm_maxacts_per_trefi=79 --num-cpus=4 --mem-size=16GB --mem-type=DDR5_2400_32x4 --mem-ranks=1 --mem-channels=1 --checkpoint-dir=/home/user/PrIDE/performance/gem5/cpts-DDR5/multiprogram_16GBmem_25Bn.SPEC2017.C4/mix6-1-ref-x86 --checkpoint-restore=25000000000 --at-instruction --cpu-type DerivO3CPU --caches --l2cache --l1d_size=32kB --l1i_size=32kB --l2_size=256kB --l3_size=4MB --l1d_assoc=8 --l1i_assoc=8 --l2_assoc=16 --l3_assoc=16 --cpu-clock=3GHz --sys-clock=3GHz --maxinsts=250000000 --prog-interval=300Hz

info: Standard input is not a terminal, disabling listeners.
Benchmark- 0   nab
Selected benchmark
--> nab
CMD: ['/opt/spec2017/benchspec/CPU/544.nab_r/run/run_base_refrate_gem5_se-m64.0000/nab_r_base.gem5_se-m64', '1am0', '1122214447', '122']
CWD: /opt/spec2017/benchspec/CPU/544.nab_r/run/run_base_refrate_gem5_se-m64.0000/
Process stdout file: /home/user/PrIDE/performance/gem5/stats/pride_multiprogram_16GBmem_250Mn.SPEC2017.C4/RFM1.BR1.4C/mix6/mix6.out_0
Process stderr file: /home/user/PrIDE/performance/gem5/stats/pride_multiprogram_16GBmem_250Mn.SPEC2017.C4/RFM1.BR1.4C/mix6/mix6.err_0
Benchmark- 1   lbm
Selected benchmark
--> lbm
CMD: ['/opt/spec2017/benchspec/CPU/519.lbm_r/run/run_base_refrate_gem5_se-m64.0000/lbm_r_base.gem5_se-m64', '3000', 'reference.dat', '0', '0', '/opt/spec2017/benchspec/CPU/519.lbm_r/run/run_base_refrate_gem5_se-m64.0000/100_100_130_ldc.of']
CWD: /opt/spec2017/benchspec/CPU/519.lbm_r/run/run_base_refrate_gem5_se-m64.0000/
Process stdout file: /home/user/PrIDE/performance/gem5/stats/pride_multiprogram_16GBmem_250Mn.SPEC2017.C4/RFM1.BR1.4C/mix6/mix6.out_1
Process stderr file: /home/user/PrIDE/performance/gem5/stats/pride_multiprogram_16GBmem_250Mn.SPEC2017.C4/RFM1.BR1.4C/mix6/mix6.err_1
Benchmark- 2   imagick
Selected benchmark
--> imagick
CMD: ['/opt/spec2017/benchspec/CPU/538.imagick_r/run/run_base_refrate_gem5_se-m64.0000/imagick_r_base.gem5_se-m64', '-limit', 'disk', '0', '/opt/spec2017/benchspec/CPU/538.imagick_r/run/run_base_refrate_gem5_se-m64.0000/refrate_input.tga', '-edge', '41', '-resample', '181%', '-emboss', '31', '-colorspace', 'YUV', '-mean-shift', '19x19+15%', '-resize', '30%', '/opt/spec2017/benchspec/CPU/538.imagick_r/run/run_base_refrate_gem5_se-m64.0000/refrate_output.tga']
CWD: /opt/spec2017/benchspec/CPU/538.imagick_r/run/run_base_refrate_gem5_se-m64.0000/
Process stdout file: /home/user/PrIDE/performance/gem5/stats/pride_multiprogram_16GBmem_250Mn.SPEC2017.C4/RFM1.BR1.4C/mix6/mix6.out_2
Process stderr file: /home/user/PrIDE/performance/gem5/stats/pride_multiprogram_16GBmem_250Mn.SPEC2017.C4/RFM1.BR1.4C/mix6/mix6.err_2
Benchmark- 3   povray
Selected benchmark
--> povray
CMD: ['/opt/spec2017/benchspec/CPU/511.povray_r/run/run_base_refrate_gem5_se-m64.0000/povray_r_base.gem5_se-m64', '/opt/spec2017/benchspec/CPU/511.povray_r/run/run_base_refrate_gem5_se-m64.0000/SPEC-benchmark-ref.ini']
CWD: /opt/spec2017/benchspec/CPU/511.povray_r/run/run_base_refrate_gem5_se-m64.0000/
Process stdout file: /home/user/PrIDE/performance/gem5/stats/pride_multiprogram_16GBmem_250Mn.SPEC2017.C4/RFM1.BR1.4C/mix6/mix6.out_3
Process stderr file: /home/user/PrIDE/performance/gem5/stats/pride_multiprogram_16GBmem_250Mn.SPEC2017.C4/RFM1.BR1.4C/mix6/mix6.err_3
Workload-0: 
['/opt/spec2017/benchspec/CPU/544.nab_r/run/run_base_refrate_gem5_se-m64.0000/nab_r_base.gem5_se-m64', '1am0', '1122214447', '122']
Workload-1: 
['/opt/spec2017/benchspec/CPU/519.lbm_r/run/run_base_refrate_gem5_se-m64.0000/lbm_r_base.gem5_se-m64', '3000', 'reference.dat', '0', '0', '/opt/spec2017/benchspec/CPU/519.lbm_r/run/run_base_refrate_gem5_se-m64.0000/100_100_130_ldc.of']
Workload-2: 
['/opt/spec2017/benchspec/CPU/538.imagick_r/run/run_base_refrate_gem5_se-m64.0000/imagick_r_base.gem5_se-m64', '-limit', 'disk', '0', '/opt/spec2017/benchspec/CPU/538.imagick_r/run/run_base_refrate_gem5_se-m64.0000/refrate_input.tga', '-edge', '41', '-resample', '181%', '-emboss', '31', '-colorspace', 'YUV', '-mean-shift', '19x19+15%', '-resize', '30%', '/opt/spec2017/benchspec/CPU/538.imagick_r/run/run_base_refrate_gem5_se-m64.0000/refrate_output.tga']
Workload-3: 
['/opt/spec2017/benchspec/CPU/511.povray_r/run/run_base_refrate_gem5_se-m64.0000/povray_r_base.gem5_se-m64', '/opt/spec2017/benchspec/CPU/511.povray_r/run/run_base_refrate_gem5_se-m64.0000/SPEC-benchmark-ref.ini']
defense_enable:  True  detector:  MG  mitigation:  RFM  threshold:  800
mg_entries:  1700
rfm_maxacts_per_trefi:  79 rfm_per_trefi:  1 rfm_blast_radius:  1
Switch at curTick count:10000
warn: membus.master is deprecated. `master` is now called `mem_side_ports`
warn: No dot file generated. Please install pydot to generate the dot file and pdf.
info: Entering event queue @ 13719052596285.  Starting simulation...
info: Entering event queue @ 13719052606285.  Starting simulation...
warn: PowerState: Already in the requested power state, request ignored
Switched CPUS @ tick 13719052606285
switching cpus
**** REAL SIMULATION ****
info: Entering event queue @ 13719052607274.  Starting simulation...
13722385929618: Event_285: system.switch_cpus3 progress event, total committed:44438329, progress insts committed: 44438329, IPC: 04.43939
13722385929618: Event_284: system.switch_cpus2 progress event, total committed:50561122, progress insts committed: 50561122, IPC: 05.05106
13722385929618: Event_283: system.switch_cpus1 progress event, total committed:10327048, progress insts committed: 10327048, IPC: 01.03167
13722385929618: Event_282: system.switch_cpus0 progress event, total committed:35136331, progress insts committed: 35136331, IPC: 03.51012
13725719262951: Event_282: system.switch_cpus0 progress event, total committed:71991482, progress insts committed: 36855151, IPC: 03.68183
13725719262951: Event_283: system.switch_cpus1 progress event, total committed:17673801, progress insts committed: 7346753, IPC: 0.733941
13725719262951: Event_284: system.switch_cpus2 progress event, total committed:102780843, progress insts committed: 52219721, IPC: 05.21675
13725719262951: Event_285: system.switch_cpus3 progress event, total committed:89810925, progress insts committed: 45372596, IPC: 04.53272
13729052596284: Event_285: system.switch_cpus3 progress event, total committed:135284705, progress insts committed: 45473780, IPC: 04.54283
13729052596284: Event_284: system.switch_cpus2 progress event, total committed:155200178, progress insts committed: 52419335, IPC: 05.23669
13729052596284: Event_283: system.switch_cpus1 progress event, total committed:26544866, progress insts committed: 8871065, IPC: 0.886219
13729052596284: Event_282: system.switch_cpus0 progress event, total committed:110752619, progress insts committed: 38761137, IPC: 03.87224
warn: MOVNTDQ: Ignoring non-temporal hint, modeling as cacheable!
13732385929617: Event_282: system.switch_cpus0 progress event, total committed:148532161, progress insts committed: 37779542, IPC: 03.77418
13732385929617: Event_283: system.switch_cpus1 progress event, total committed:34627519, progress insts committed: 8082653, IPC: 0.807457
13732385929617: Event_284: system.switch_cpus2 progress event, total committed:163451883, progress insts committed: 8251705, IPC: 0.824345
13732385929617: Event_285: system.switch_cpus3 progress event, total committed:180962697, progress insts committed: 45677992, IPC: 04.56323
13735719262950: Event_285: system.switch_cpus3 progress event, total committed:225958775, progress insts committed: 44996078, IPC: 04.49511
13735719262950: Event_284: system.switch_cpus2 progress event, total committed:189480107, progress insts committed: 26028224, IPC: 02.60022
13735719262950: Event_283: system.switch_cpus1 progress event, total committed:42699531, progress insts committed: 8072012, IPC: 0.806394
13735719262950: Event_282: system.switch_cpus0 progress event, total committed:185439035, progress insts committed: 36906874, IPC: 0003.687
13739052596283: Event_282: system.switch_cpus0 progress event, total committed:222311794, progress insts committed: 36872759, IPC: 03.68359
13739052596283: Event_283: system.switch_cpus1 progress event, total committed:51326819, progress insts committed: 8627288, IPC: 0.861866
13739052596283: Event_284: system.switch_cpus2 progress event, total committed:241917715, progress insts committed: 52437608, IPC: 05.23852
13739052596283: Event_285: system.switch_cpus3 progress event, total committed:270917985, progress insts committed: 44959210, IPC: 04.49143
13742385929616: Event_285: system.switch_cpus3 progress event, total committed:315967876, progress insts committed: 45049891, IPC: 04.50048
13742385929616: Event_284: system.switch_cpus2 progress event, total committed:294470833, progress insts committed: 52553118, IPC: 05.25006
13742385929616: Event_283: system.switch_cpus1 progress event, total committed:60135495, progress insts committed: 8808676, IPC: 0.879987
13742385929616: Event_282: system.switch_cpus0 progress event, total committed:261533170, progress insts committed: 39221376, IPC: 03.91822
13745719262949: Event_282: system.switch_cpus0 progress event, total committed:300006465, progress insts committed: 38473295, IPC: 03.84348
13745719262949: Event_283: system.switch_cpus1 progress event, total committed:69044195, progress insts committed: 8908700, IPC: 0.889979
13745719262949: Event_284: system.switch_cpus2 progress event, total committed:346929116, progress insts committed: 52458283, IPC: 05.24058
13745719262949: Event_285: system.switch_cpus3 progress event, total committed:361141441, progress insts committed: 45173565, IPC: 04.51284
13749052596282: Event_285: system.switch_cpus3 progress event, total committed:406077795, progress insts committed: 44936354, IPC: 04.48914
13749052596282: Event_284: system.switch_cpus2 progress event, total committed:399480676, progress insts committed: 52551560, IPC: 005.2499
13749052596282: Event_283: system.switch_cpus1 progress event, total committed:78268374, progress insts committed: 9224179, IPC: 0.921495
13749052596282: Event_282: system.switch_cpus0 progress event, total committed:338644746, progress insts committed: 38638281, IPC: 03.85996
Exiting @ tick 13750552713969 because a thread reached the max instruction count
