
---------- Begin Simulation Statistics ----------
final_tick                               13750545612411                       # Number of ticks from beginning of simulation (restored from checkpoints and never reset)
host_inst_rate                                 182474                       # Simulator instruction rate (inst/s)
host_mem_usage                               17161672                       # Number of bytes of host memory used
host_op_rate                                   299018                       # Simulator op (including micro ops) rate (op/s)
host_seconds                                  4304.04                       # Real time elapsed on the host
host_tick_rate                                7317081                       # Simulator tick rate (ticks/s)
sim_freq                                 1000000000000                       # Frequency of simulated ticks
sim_insts                                   785373451                       # Number of instructions simulated
sim_ops                                    1286985743                       # Number of ops (including micro ops) simulated
sim_seconds                                  0.031493                       # Number of seconds simulated
sim_ticks                                 31493016126                       # Number of ticks simulated
system.cpu0.Branches                                2                       # Number of branches fetched
system.cpu0.committedInsts                         11                       # Number of instructions committed
system.cpu0.committedOps                           27                       # Number of ops (including micro ops) committed
system.cpu0.idle_fraction                           0                       # Percentage of idle cycles
system.cpu0.l2bus.snoop_filter.hit_multi_requests            0                       # Number of requests hitting in the snoop filter with multiple (>1) holders of the requested data.
system.cpu0.l2bus.snoop_filter.hit_multi_snoops            0                       # Number of snoops hitting in the snoop filter with multiple (>1) holders of the requested data.
system.cpu0.l2bus.snoop_filter.hit_single_requests      1108917                       # Number of requests hitting in the snoop filter with a single holder of the requested data.
system.cpu0.l2bus.snoop_filter.hit_single_snoops          246                       # Number of snoops hitting in the snoop filter with a single holder of the requested data.
system.cpu0.l2bus.snoop_filter.tot_requests      2217363                       # Total number of requests made to the snoop filter.
system.cpu0.l2bus.snoop_filter.tot_snoops          246                       # Total number of snoops made to the snoop filter.
system.cpu0.mmucache.mmubus.snoop_filter.hit_multi_requests            0                       # Number of requests hitting in the snoop filter with multiple (>1) holders of the requested data.
system.cpu0.mmucache.mmubus.snoop_filter.hit_multi_snoops            0                       # Number of snoops hitting in the snoop filter with multiple (>1) holders of the requested data.
system.cpu0.mmucache.mmubus.snoop_filter.hit_single_requests            0                       # Number of requests hitting in the snoop filter with a single holder of the requested data.
system.cpu0.mmucache.mmubus.snoop_filter.hit_single_snoops            0                       # Number of snoops hitting in the snoop filter with a single holder of the requested data.
system.cpu0.mmucache.mmubus.snoop_filter.tot_requests            0                       # Total number of requests made to the snoop filter.
system.cpu0.mmucache.mmubus.snoop_filter.tot_snoops            0                       # Total number of snoops made to the snoop filter.
system.cpu0.not_idle_fraction                       1                       # Percentage of non-idle cycles
system.cpu0.numCycles                              33                       # number of cpu cycles simulated
system.cpu0.numWorkItemsCompleted                   0                       # number of work items this cpu completed
system.cpu0.numWorkItemsStarted                     0                       # number of work items this cpu started
system.cpu0.num_busy_cycles                        33                       # Number of busy cycles
system.cpu0.num_cc_register_reads                   6                       # number of times the CC registers were read
system.cpu0.num_cc_register_writes                  4                       # number of times the CC registers were written
system.cpu0.num_conditional_control_insts            1                       # number of instructions that are conditional controls
system.cpu0.num_fp_alu_accesses                     8                       # Number of float alu accesses
system.cpu0.num_fp_insts                            8                       # number of float instructions
system.cpu0.num_fp_register_reads                   8                       # number of times the floating registers were read
system.cpu0.num_fp_register_writes                  8                       # number of times the floating registers were written
system.cpu0.num_func_calls                          1                       # number of times a function call or return occured
system.cpu0.num_idle_cycles                         0                       # Number of idle cycles
system.cpu0.num_int_alu_accesses                   21                       # Number of integer alu accesses
system.cpu0.num_int_insts                          21                       # number of integer instructions
system.cpu0.num_int_register_reads                 42                       # number of times the integer registers were read
system.cpu0.num_int_register_writes                17                       # number of times the integer registers were written
system.cpu0.num_load_insts                          7                       # Number of load instructions
system.cpu0.num_mem_refs                            7                       # number of memory refs
system.cpu0.num_store_insts                         0                       # Number of store instructions
system.cpu0.num_vec_alu_accesses                    0                       # Number of vector alu accesses
system.cpu0.num_vec_insts                           0                       # number of vector instructions
system.cpu0.num_vec_register_reads                  0                       # number of times the vector registers were read
system.cpu0.num_vec_register_writes                 0                       # number of times the vector registers were written
system.cpu0.op_class::No_OpClass                    0      0.00%      0.00% # Class of executed instruction
system.cpu0.op_class::IntAlu                       18     66.67%     66.67% # Class of executed instruction
system.cpu0.op_class::IntMult                       0      0.00%     66.67% # Class of executed instruction
system.cpu0.op_class::IntDiv                        0      0.00%     66.67% # Class of executed instruction
system.cpu0.op_class::FloatAdd                      2      7.41%     74.07% # Class of executed instruction
system.cpu0.op_class::FloatCmp                      0      0.00%     74.07% # Class of executed instruction
system.cpu0.op_class::FloatCvt                      0      0.00%     74.07% # Class of executed instruction
system.cpu0.op_class::FloatMult                     0      0.00%     74.07% # Class of executed instruction
system.cpu0.op_class::FloatMultAcc                  0      0.00%     74.07% # Class of executed instruction
system.cpu0.op_class::FloatDiv                      0      0.00%     74.07% # Class of executed instruction
system.cpu0.op_class::FloatMisc                     0      0.00%     74.07% # Class of executed instruction
system.cpu0.op_class::FloatSqrt                     0      0.00%     74.07% # Class of executed instruction
system.cpu0.op_class::SimdAdd                       0      0.00%     74.07% # Class of executed instruction
system.cpu0.op_class::SimdAddAcc                    0      0.00%     74.07% # Class of executed instruction
system.cpu0.op_class::SimdAlu                       0      0.00%     74.07% # Class of executed instruction
system.cpu0.op_class::SimdCmp                       0      0.00%     74.07% # Class of executed instruction
system.cpu0.op_class::SimdCvt                       0      0.00%     74.07% # Class of executed instruction
system.cpu0.op_class::SimdMisc                      0      0.00%     74.07% # Class of executed instruction
system.cpu0.op_class::SimdMult                      0      0.00%     74.07% # Class of executed instruction
system.cpu0.op_class::SimdMultAcc                   0      0.00%     74.07% # Class of executed instruction
system.cpu0.op_class::SimdShift                     0      0.00%     74.07% # Class of executed instruction
system.cpu0.op_class::SimdShiftAcc                  0      0.00%     74.07% # Class of executed instruction
system.cpu0.op_class::SimdDiv                       0      0.00%     74.07% # Class of executed instruction
system.cpu0.op_class::SimdSqrt                      0      0.00%     74.07% # Class of executed instruction
system.cpu0.op_class::SimdFloatAdd                  0      0.00%     74.07% # Class of executed instruction
system.cpu0.op_class::SimdFloatAlu                  0      0.00%     74.07% # Class of executed instruction
system.cpu0.op_class::SimdFloatCmp                  0      0.00%     74.07% # Class of executed instruction
system.cpu0.op_class::SimdFloatCvt                  0      0.00%     74.07% # Class of executed instruction
system.cpu0.op_class::SimdFloatDiv                  0      0.00%     74.07% # Class of executed instruction
system.cpu0.op_class::SimdFloatMisc                 0      0.00%     74.07% # Class of executed instruction
system.cpu0.op_class::SimdFloatMult                 0      0.00%     74.07% # Class of executed instruction
system.cpu0.op_class::SimdFloatMultAcc              0      0.00%     74.07% # Class of executed instruction
system.cpu0.op_class::SimdFloatSqrt                 0      0.00%     74.07% # Class of executed instruction
system.cpu0.op_class::SimdReduceAdd                 0      0.00%     74.07% # Class of executed instruction
system.cpu0.op_class::SimdReduceAlu                 0      0.00%     74.07% # Class of executed instruction
system.cpu0.op_class::SimdReduceCmp                 0      0.00%     74.07% # Class of executed instruction
system.cpu0.op_class::SimdFloatReduceAdd            0      0.00%     74.07% # Class of executed instruction
system.cpu0.op_class::SimdFloatReduceCmp            0      0.00%     74.07% # Class of executed instruction
system.cpu0.op_class::SimdAes                       0      0.00%     74.07% # Class of executed instruction
system.cpu0.op_class::SimdAesMix                    0      0.00%     74.07% # Class of executed instruction
system.cpu0.op_class::SimdSha1Hash                  0      0.00%     74.07% # Class of executed instruction
system.cpu0.op_class::SimdSha1Hash2                 0      0.00%     74.07% # Class of executed instruction
system.cpu0.op_class::SimdSha256Hash                0      0.00%     74.07% # Class of executed instruction
system.cpu0.op_class::SimdSha256Hash2               0      0.00%     74.07% # Class of executed instruction
system.cpu0.op_class::SimdShaSigma2                 0      0.00%     74.07% # Class of executed instruction
system.cpu0.op_class::SimdShaSigma3                 0      0.00%     74.07% # Class of executed instruction
system.cpu0.op_class::SimdPredAlu                   0      0.00%     74.07% # Class of executed instruction
system.cpu0.op_class::MemRead                       5     18.52%     92.59% # Class of executed instruction
system.cpu0.op_class::MemWrite                      0      0.00%     92.59% # Class of executed instruction
system.cpu0.op_class::FloatMemRead                  2      7.41%    100.00% # Class of executed instruction
system.cpu0.op_class::FloatMemWrite                 0      0.00%    100.00% # Class of executed instruction
system.cpu0.op_class::IprAccess                     0      0.00%    100.00% # Class of executed instruction
system.cpu0.op_class::InstPrefetch                  0      0.00%    100.00% # Class of executed instruction
system.cpu0.op_class::total                        27                       # Class of executed instruction
system.cpu0.workload.numSyscalls                    0                       # Number of system calls
system.cpu1.committedInsts                         19                       # Number of instructions committed
system.cpu1.committedOps                           20                       # Number of ops (including micro ops) committed
system.cpu1.idle_fraction                           0                       # Percentage of idle cycles
system.cpu1.l2bus.snoop_filter.hit_multi_requests            0                       # Number of requests hitting in the snoop filter with multiple (>1) holders of the requested data.
system.cpu1.l2bus.snoop_filter.hit_multi_snoops            0                       # Number of snoops hitting in the snoop filter with multiple (>1) holders of the requested data.
system.cpu1.l2bus.snoop_filter.hit_single_requests      2640631                       # Number of requests hitting in the snoop filter with a single holder of the requested data.
system.cpu1.l2bus.snoop_filter.hit_single_snoops          221                       # Number of snoops hitting in the snoop filter with a single holder of the requested data.
system.cpu1.l2bus.snoop_filter.tot_requests      5281841                       # Total number of requests made to the snoop filter.
system.cpu1.l2bus.snoop_filter.tot_snoops          221                       # Total number of snoops made to the snoop filter.
system.cpu1.mmucache.mmubus.snoop_filter.hit_multi_requests            0                       # Number of requests hitting in the snoop filter with multiple (>1) holders of the requested data.
system.cpu1.mmucache.mmubus.snoop_filter.hit_multi_snoops            0                       # Number of snoops hitting in the snoop filter with multiple (>1) holders of the requested data.
system.cpu1.mmucache.mmubus.snoop_filter.hit_single_requests            0                       # Number of requests hitting in the snoop filter with a single holder of the requested data.
system.cpu1.mmucache.mmubus.snoop_filter.hit_single_snoops            0                       # Number of snoops hitting in the snoop filter with a single holder of the requested data.
system.cpu1.mmucache.mmubus.snoop_filter.tot_requests            0                       # Total number of requests made to the snoop filter.
system.cpu1.mmucache.mmubus.snoop_filter.tot_snoops            0                       # Total number of snoops made to the snoop filter.
system.cpu1.not_idle_fraction                       1                       # Percentage of non-idle cycles
system.cpu1.numCycles                              30                       # number of cpu cycles simulated
system.cpu1.numWorkItemsCompleted                   0                       # number of work items this cpu completed
system.cpu1.numWorkItemsStarted                     0                       # number of work items this cpu started
system.cpu1.num_busy_cycles                        30                       # Number of busy cycles
system.cpu1.num_conditional_control_insts            0                       # number of instructions that are conditional controls
system.cpu1.num_fp_alu_accesses                    20                       # Number of float alu accesses
system.cpu1.num_fp_insts                           20                       # number of float instructions
system.cpu1.num_fp_register_reads                  36                       # number of times the floating registers were read
system.cpu1.num_fp_register_writes                 19                       # number of times the floating registers were written
system.cpu1.num_func_calls                          0                       # number of times a function call or return occured
system.cpu1.num_idle_cycles                         0                       # Number of idle cycles
system.cpu1.num_int_alu_accesses                    8                       # Number of integer alu accesses
system.cpu1.num_int_insts                           8                       # number of integer instructions
system.cpu1.num_int_register_reads                 24                       # number of times the integer registers were read
system.cpu1.num_int_register_writes                 0                       # number of times the integer registers were written
system.cpu1.num_load_insts                          7                       # Number of load instructions
system.cpu1.num_mem_refs                            8                       # number of memory refs
system.cpu1.num_store_insts                         1                       # Number of store instructions
system.cpu1.num_vec_alu_accesses                    0                       # Number of vector alu accesses
system.cpu1.num_vec_insts                           0                       # number of vector instructions
system.cpu1.num_vec_register_reads                  0                       # number of times the vector registers were read
system.cpu1.num_vec_register_writes                 0                       # number of times the vector registers were written
system.cpu1.op_class::No_OpClass                    0      0.00%      0.00% # Class of executed instruction
system.cpu1.op_class::IntAlu                        1      5.00%      5.00% # Class of executed instruction
system.cpu1.op_class::IntMult                       0      0.00%      5.00% # Class of executed instruction
system.cpu1.op_class::IntDiv                        0      0.00%      5.00% # Class of executed instruction
system.cpu1.op_class::FloatAdd                      0      0.00%      5.00% # Class of executed instruction
system.cpu1.op_class::FloatCmp                      0      0.00%      5.00% # Class of executed instruction
system.cpu1.op_class::FloatCvt                      0      0.00%      5.00% # Class of executed instruction
system.cpu1.op_class::FloatMult                     0      0.00%      5.00% # Class of executed instruction
system.cpu1.op_class::FloatMultAcc                  0      0.00%      5.00% # Class of executed instruction
system.cpu1.op_class::FloatDiv                      0      0.00%      5.00% # Class of executed instruction
system.cpu1.op_class::FloatMisc                     0      0.00%      5.00% # Class of executed instruction
system.cpu1.op_class::FloatSqrt                     0      0.00%      5.00% # Class of executed instruction
system.cpu1.op_class::SimdAdd                       0      0.00%      5.00% # Class of executed instruction
system.cpu1.op_class::SimdAddAcc                    0      0.00%      5.00% # Class of executed instruction
system.cpu1.op_class::SimdAlu                       0      0.00%      5.00% # Class of executed instruction
system.cpu1.op_class::SimdCmp                       0      0.00%      5.00% # Class of executed instruction
system.cpu1.op_class::SimdCvt                       0      0.00%      5.00% # Class of executed instruction
system.cpu1.op_class::SimdMisc                      0      0.00%      5.00% # Class of executed instruction
system.cpu1.op_class::SimdMult                      0      0.00%      5.00% # Class of executed instruction
system.cpu1.op_class::SimdMultAcc                   0      0.00%      5.00% # Class of executed instruction
system.cpu1.op_class::SimdShift                     0      0.00%      5.00% # Class of executed instruction
system.cpu1.op_class::SimdShiftAcc                  0      0.00%      5.00% # Class of executed instruction
system.cpu1.op_class::SimdDiv                       0      0.00%      5.00% # Class of executed instruction
system.cpu1.op_class::SimdSqrt                      0      0.00%      5.00% # Class of executed instruction
system.cpu1.op_class::SimdFloatAdd                  5     25.00%     30.00% # Class of executed instruction
system.cpu1.op_class::SimdFloatAlu                  0      0.00%     30.00% # Class of executed instruction
system.cpu1.op_class::SimdFloatCmp                  0      0.00%     30.00% # Class of executed instruction
system.cpu1.op_class::SimdFloatCvt                  0      0.00%     30.00% # Class of executed instruction
system.cpu1.op_class::SimdFloatDiv                  0      0.00%     30.00% # Class of executed instruction
system.cpu1.op_class::SimdFloatMisc                 0      0.00%     30.00% # Class of executed instruction
system.cpu1.op_class::SimdFloatMult                 6     30.00%     60.00% # Class of executed instruction
system.cpu1.op_class::SimdFloatMultAcc              0      0.00%     60.00% # Class of executed instruction
system.cpu1.op_class::SimdFloatSqrt                 0      0.00%     60.00% # Class of executed instruction
system.cpu1.op_class::SimdReduceAdd                 0      0.00%     60.00% # Class of executed instruction
system.cpu1.op_class::SimdReduceAlu                 0      0.00%     60.00% # Class of executed instruction
system.cpu1.op_class::SimdReduceCmp                 0      0.00%     60.00% # Class of executed instruction
system.cpu1.op_class::SimdFloatReduceAdd            0      0.00%     60.00% # Class of executed instruction
system.cpu1.op_class::SimdFloatReduceCmp            0      0.00%     60.00% # Class of executed instruction
system.cpu1.op_class::SimdAes                       0      0.00%     60.00% # Class of executed instruction
system.cpu1.op_class::SimdAesMix                    0      0.00%     60.00% # Class of executed instruction
system.cpu1.op_class::SimdSha1Hash                  0      0.00%     60.00% # Class of executed instruction
system.cpu1.op_class::SimdSha1Hash2                 0      0.00%     60.00% # Class of executed instruction
system.cpu1.op_class::SimdSha256Hash                0      0.00%     60.00% # Class of executed instruction
system.cpu1.op_class::SimdSha256Hash2               0      0.00%     60.00% # Class of executed instruction
system.cpu1.op_class::SimdShaSigma2                 0      0.00%     60.00% # Class of executed instruction
system.cpu1.op_class::SimdShaSigma3                 0      0.00%     60.00% # Class of executed instruction
system.cpu1.op_class::SimdPredAlu                   0      0.00%     60.00% # Class of executed instruction
system.cpu1.op_class::MemRead                       0      0.00%     60.00% # Class of executed instruction
system.cpu1.op_class::MemWrite                      0      0.00%     60.00% # Class of executed instruction
system.cpu1.op_class::FloatMemRead                  7     35.00%     95.00% # Class of executed instruction
system.cpu1.op_class::FloatMemWrite                 1      5.00%    100.00% # Class of executed instruction
system.cpu1.op_class::IprAccess                     0      0.00%    100.00% # Class of executed instruction
system.cpu1.op_class::InstPrefetch                  0      0.00%    100.00% # Class of executed instruction
system.cpu1.op_class::total                        20                       # Class of executed instruction
system.cpu1.workload.numSyscalls                    0                       # Number of system calls
system.cpu2.committedInsts                         15                       # Number of instructions committed
system.cpu2.committedOps                           23                       # Number of ops (including micro ops) committed
system.cpu2.idle_fraction                           0                       # Percentage of idle cycles
system.cpu2.l2bus.snoop_filter.hit_multi_requests            3                       # Number of requests hitting in the snoop filter with multiple (>1) holders of the requested data.
system.cpu2.l2bus.snoop_filter.hit_multi_snoops            0                       # Number of snoops hitting in the snoop filter with multiple (>1) holders of the requested data.
system.cpu2.l2bus.snoop_filter.hit_single_requests      2529394                       # Number of requests hitting in the snoop filter with a single holder of the requested data.
system.cpu2.l2bus.snoop_filter.hit_single_snoops          215                       # Number of snoops hitting in the snoop filter with a single holder of the requested data.
system.cpu2.l2bus.snoop_filter.tot_requests      5059493                       # Total number of requests made to the snoop filter.
system.cpu2.l2bus.snoop_filter.tot_snoops          215                       # Total number of snoops made to the snoop filter.
system.cpu2.mmucache.mmubus.snoop_filter.hit_multi_requests            0                       # Number of requests hitting in the snoop filter with multiple (>1) holders of the requested data.
system.cpu2.mmucache.mmubus.snoop_filter.hit_multi_snoops            0                       # Number of snoops hitting in the snoop filter with multiple (>1) holders of the requested data.
system.cpu2.mmucache.mmubus.snoop_filter.hit_single_requests            0                       # Number of requests hitting in the snoop filter with a single holder of the requested data.
system.cpu2.mmucache.mmubus.snoop_filter.hit_single_snoops            0                       # Number of snoops hitting in the snoop filter with a single holder of the requested data.
system.cpu2.mmucache.mmubus.snoop_filter.tot_requests            0                       # Total number of requests made to the snoop filter.
system.cpu2.mmucache.mmubus.snoop_filter.tot_snoops            0                       # Total number of snoops made to the snoop filter.
system.cpu2.not_idle_fraction                       1                       # Percentage of non-idle cycles
system.cpu2.numCycles                              31                       # number of cpu cycles simulated
system.cpu2.numWorkItemsCompleted                   0                       # number of work items this cpu completed
system.cpu2.numWorkItemsStarted                     0                       # number of work items this cpu started
system.cpu2.num_busy_cycles                        31                       # Number of busy cycles
system.cpu2.num_cc_register_writes                  2                       # number of times the CC registers were written
system.cpu2.num_conditional_control_insts            0                       # number of instructions that are conditional controls
system.cpu2.num_fp_alu_accesses                    15                       # Number of float alu accesses
system.cpu2.num_fp_insts                           15                       # number of float instructions
system.cpu2.num_fp_register_reads                  33                       # number of times the floating registers were read
system.cpu2.num_fp_register_writes                 15                       # number of times the floating registers were written
system.cpu2.num_func_calls                          0                       # number of times a function call or return occured
system.cpu2.num_idle_cycles                         0                       # Number of idle cycles
system.cpu2.num_int_alu_accesses                   12                       # Number of integer alu accesses
system.cpu2.num_int_insts                          12                       # number of integer instructions
system.cpu2.num_int_register_reads                 21                       # number of times the integer registers were read
system.cpu2.num_int_register_writes                 8                       # number of times the integer registers were written
system.cpu2.num_load_insts                          3                       # Number of load instructions
system.cpu2.num_mem_refs                            3                       # number of memory refs
system.cpu2.num_store_insts                         0                       # Number of store instructions
system.cpu2.num_vec_alu_accesses                    0                       # Number of vector alu accesses
system.cpu2.num_vec_insts                           0                       # number of vector instructions
system.cpu2.num_vec_register_reads                  0                       # number of times the vector registers were read
system.cpu2.num_vec_register_writes                 0                       # number of times the vector registers were written
system.cpu2.op_class::No_OpClass                    0      0.00%      0.00% # Class of executed instruction
system.cpu2.op_class::IntAlu                        5     21.74%     21.74% # Class of executed instruction
system.cpu2.op_class::IntMult                       0      0.00%     21.74% # Class of executed instruction
system.cpu2.op_class::IntDiv                        0      0.00%     21.74% # Class of executed instruction
system.cpu2.op_class::FloatAdd                      0      0.00%     21.74% # Class of executed instruction
system.cpu2.op_class::FloatCmp                      0      0.00%     21.74% # Class of executed instruction
system.cpu2.op_class::FloatCvt                      0      0.00%     21.74% # Class of executed instruction
system.cpu2.op_class::FloatMult                     0      0.00%     21.74% # Class of executed instruction
system.cpu2.op_class::FloatMultAcc                  0      0.00%     21.74% # Class of executed instruction
system.cpu2.op_class::FloatDiv                      0      0.00%     21.74% # Class of executed instruction
system.cpu2.op_class::FloatMisc                     0      0.00%     21.74% # Class of executed instruction
system.cpu2.op_class::FloatSqrt                     0      0.00%     21.74% # Class of executed instruction
system.cpu2.op_class::SimdAdd                       0      0.00%     21.74% # Class of executed instruction
system.cpu2.op_class::SimdAddAcc                    0      0.00%     21.74% # Class of executed instruction
system.cpu2.op_class::SimdAlu                       0      0.00%     21.74% # Class of executed instruction
system.cpu2.op_class::SimdCmp                       0      0.00%     21.74% # Class of executed instruction
system.cpu2.op_class::SimdCvt                       0      0.00%     21.74% # Class of executed instruction
system.cpu2.op_class::SimdMisc                      4     17.39%     39.13% # Class of executed instruction
system.cpu2.op_class::SimdMult                      0      0.00%     39.13% # Class of executed instruction
system.cpu2.op_class::SimdMultAcc                   0      0.00%     39.13% # Class of executed instruction
system.cpu2.op_class::SimdShift                     0      0.00%     39.13% # Class of executed instruction
system.cpu2.op_class::SimdShiftAcc                  0      0.00%     39.13% # Class of executed instruction
system.cpu2.op_class::SimdDiv                       0      0.00%     39.13% # Class of executed instruction
system.cpu2.op_class::SimdSqrt                      0      0.00%     39.13% # Class of executed instruction
system.cpu2.op_class::SimdFloatAdd                  3     13.04%     52.17% # Class of executed instruction
system.cpu2.op_class::SimdFloatAlu                  0      0.00%     52.17% # Class of executed instruction
system.cpu2.op_class::SimdFloatCmp                  0      0.00%     52.17% # Class of executed instruction
system.cpu2.op_class::SimdFloatCvt                  4     17.39%     69.57% # Class of executed instruction
system.cpu2.op_class::SimdFloatDiv                  0      0.00%     69.57% # Class of executed instruction
system.cpu2.op_class::SimdFloatMisc                 0      0.00%     69.57% # Class of executed instruction
system.cpu2.op_class::SimdFloatMult                 4     17.39%     86.96% # Class of executed instruction
system.cpu2.op_class::SimdFloatMultAcc              0      0.00%     86.96% # Class of executed instruction
system.cpu2.op_class::SimdFloatSqrt                 0      0.00%     86.96% # Class of executed instruction
system.cpu2.op_class::SimdReduceAdd                 0      0.00%     86.96% # Class of executed instruction
system.cpu2.op_class::SimdReduceAlu                 0      0.00%     86.96% # Class of executed instruction
system.cpu2.op_class::SimdReduceCmp                 0      0.00%     86.96% # Class of executed instruction
system.cpu2.op_class::SimdFloatReduceAdd            0      0.00%     86.96% # Class of executed instruction
system.cpu2.op_class::SimdFloatReduceCmp            0      0.00%     86.96% # Class of executed instruction
system.cpu2.op_class::SimdAes                       0      0.00%     86.96% # Class of executed instruction
system.cpu2.op_class::SimdAesMix                    0      0.00%     86.96% # Class of executed instruction
system.cpu2.op_class::SimdSha1Hash                  0      0.00%     86.96% # Class of executed instruction
system.cpu2.op_class::SimdSha1Hash2                 0      0.00%     86.96% # Class of executed instruction
system.cpu2.op_class::SimdSha256Hash                0      0.00%     86.96% # Class of executed instruction
system.cpu2.op_class::SimdSha256Hash2               0      0.00%     86.96% # Class of executed instruction
system.cpu2.op_class::SimdShaSigma2                 0      0.00%     86.96% # Class of executed instruction
system.cpu2.op_class::SimdShaSigma3                 0      0.00%     86.96% # Class of executed instruction
system.cpu2.op_class::SimdPredAlu                   0      0.00%     86.96% # Class of executed instruction
system.cpu2.op_class::MemRead                       3     13.04%    100.00% # Class of executed instruction
system.cpu2.op_class::MemWrite                      0      0.00%    100.00% # Class of executed instruction
system.cpu2.op_class::FloatMemRead                  0      0.00%    100.00% # Class of executed instruction
system.cpu2.op_class::FloatMemWrite                 0      0.00%    100.00% # Class of executed instruction
system.cpu2.op_class::IprAccess                     0      0.00%    100.00% # Class of executed instruction
system.cpu2.op_class::InstPrefetch                  0      0.00%    100.00% # Class of executed instruction
system.cpu2.op_class::total                        23                       # Class of executed instruction
system.cpu2.workload.numSyscalls                    0                       # Number of system calls
system.cpu3.Branches                                1                       # Number of branches fetched
system.cpu3.committedInsts                         18                       # Number of instructions committed
system.cpu3.committedOps                           21                       # Number of ops (including micro ops) committed
system.cpu3.idle_fraction                           0                       # Percentage of idle cycles
system.cpu3.l2bus.snoop_filter.hit_multi_requests        10280                       # Number of requests hitting in the snoop filter with multiple (>1) holders of the requested data.
system.cpu3.l2bus.snoop_filter.hit_multi_snoops            0                       # Number of snoops hitting in the snoop filter with multiple (>1) holders of the requested data.
system.cpu3.l2bus.snoop_filter.hit_single_requests      1640272                       # Number of requests hitting in the snoop filter with a single holder of the requested data.
system.cpu3.l2bus.snoop_filter.hit_single_snoops            0                       # Number of snoops hitting in the snoop filter with a single holder of the requested data.
system.cpu3.l2bus.snoop_filter.tot_requests      3281487                       # Total number of requests made to the snoop filter.
system.cpu3.l2bus.snoop_filter.tot_snoops            0                       # Total number of snoops made to the snoop filter.
system.cpu3.mmucache.mmubus.snoop_filter.hit_multi_requests            0                       # Number of requests hitting in the snoop filter with multiple (>1) holders of the requested data.
system.cpu3.mmucache.mmubus.snoop_filter.hit_multi_snoops            0                       # Number of snoops hitting in the snoop filter with multiple (>1) holders of the requested data.
system.cpu3.mmucache.mmubus.snoop_filter.hit_single_requests            0                       # Number of requests hitting in the snoop filter with a single holder of the requested data.
system.cpu3.mmucache.mmubus.snoop_filter.hit_single_snoops            0                       # Number of snoops hitting in the snoop filter with a single holder of the requested data.
system.cpu3.mmucache.mmubus.snoop_filter.tot_requests            0                       # Total number of requests made to the snoop filter.
system.cpu3.mmucache.mmubus.snoop_filter.tot_snoops            0                       # Total number of snoops made to the snoop filter.
system.cpu3.not_idle_fraction                       1                       # Percentage of non-idle cycles
system.cpu3.numCycles                              30                       # number of cpu cycles simulated
system.cpu3.numWorkItemsCompleted                   0                       # number of work items this cpu completed
system.cpu3.numWorkItemsStarted                     0                       # number of work items this cpu started
system.cpu3.num_busy_cycles                        30                       # Number of busy cycles
system.cpu3.num_cc_register_reads                   7                       # number of times the CC registers were read
system.cpu3.num_cc_register_writes                  4                       # number of times the CC registers were written
system.cpu3.num_conditional_control_insts            1                       # number of instructions that are conditional controls
system.cpu3.num_fp_alu_accesses                    13                       # Number of float alu accesses
system.cpu3.num_fp_insts                           13                       # number of float instructions
system.cpu3.num_fp_register_reads                  17                       # number of times the floating registers were read
system.cpu3.num_fp_register_writes                 13                       # number of times the floating registers were written
system.cpu3.num_func_calls                          0                       # number of times a function call or return occured
system.cpu3.num_idle_cycles                         0                       # Number of idle cycles
system.cpu3.num_int_alu_accesses                   15                       # Number of integer alu accesses
system.cpu3.num_int_insts                          15                       # number of integer instructions
system.cpu3.num_int_register_reads                 37                       # number of times the integer registers were read
system.cpu3.num_int_register_writes                 6                       # number of times the integer registers were written
system.cpu3.num_load_insts                          8                       # Number of load instructions
system.cpu3.num_mem_refs                            9                       # number of memory refs
system.cpu3.num_store_insts                         1                       # Number of store instructions
system.cpu3.num_vec_alu_accesses                    0                       # Number of vector alu accesses
system.cpu3.num_vec_insts                           0                       # number of vector instructions
system.cpu3.num_vec_register_reads                  0                       # number of times the vector registers were read
system.cpu3.num_vec_register_writes                 0                       # number of times the vector registers were written
system.cpu3.op_class::No_OpClass                    0      0.00%      0.00% # Class of executed instruction
system.cpu3.op_class::IntAlu                        7     33.33%     33.33% # Class of executed instruction
system.cpu3.op_class::IntMult                       0      0.00%     33.33% # Class of executed instruction
system.cpu3.op_class::IntDiv                        0      0.00%     33.33% # Class of executed instruction
system.cpu3.op_class::FloatAdd                      0      0.00%     33.33% # Class of executed instruction
system.cpu3.op_class::FloatCmp                      0      0.00%     33.33% # Class of executed instruction
system.cpu3.op_class::FloatCvt                      0      0.00%     33.33% # Class of executed instruction
system.cpu3.op_class::FloatMult                     0      0.00%     33.33% # Class of executed instruction
system.cpu3.op_class::FloatMultAcc                  0      0.00%     33.33% # Class of executed instruction
system.cpu3.op_class::FloatDiv                      0      0.00%     33.33% # Class of executed instruction
system.cpu3.op_class::FloatMisc                     0      0.00%     33.33% # Class of executed instruction
system.cpu3.op_class::FloatSqrt                     0      0.00%     33.33% # Class of executed instruction
system.cpu3.op_class::SimdAdd                       0      0.00%     33.33% # Class of executed instruction
system.cpu3.op_class::SimdAddAcc                    0      0.00%     33.33% # Class of executed instruction
system.cpu3.op_class::SimdAlu                       0      0.00%     33.33% # Class of executed instruction
system.cpu3.op_class::SimdCmp                       0      0.00%     33.33% # Class of executed instruction
system.cpu3.op_class::SimdCvt                       0      0.00%     33.33% # Class of executed instruction
system.cpu3.op_class::SimdMisc                      0      0.00%     33.33% # Class of executed instruction
system.cpu3.op_class::SimdMult                      0      0.00%     33.33% # Class of executed instruction
system.cpu3.op_class::SimdMultAcc                   0      0.00%     33.33% # Class of executed instruction
system.cpu3.op_class::SimdShift                     0      0.00%     33.33% # Class of executed instruction
system.cpu3.op_class::SimdShiftAcc                  0      0.00%     33.33% # Class of executed instruction
system.cpu3.op_class::SimdDiv                       0      0.00%     33.33% # Class of executed instruction
system.cpu3.op_class::SimdSqrt                      0      0.00%     33.33% # Class of executed instruction
system.cpu3.op_class::SimdFloatAdd                  2      9.52%     42.86% # Class of executed instruction
system.cpu3.op_class::SimdFloatAlu                  0      0.00%     42.86% # Class of executed instruction
system.cpu3.op_class::SimdFloatCmp                  0      0.00%     42.86% # Class of executed instruction
system.cpu3.op_class::SimdFloatCvt                  0      0.00%     42.86% # Class of executed instruction
system.cpu3.op_class::SimdFloatDiv                  0      0.00%     42.86% # Class of executed instruction
system.cpu3.op_class::SimdFloatMisc                 0      0.00%     42.86% # Class of executed instruction
system.cpu3.op_class::SimdFloatMult                 3     14.29%     57.14% # Class of executed instruction
system.cpu3.op_class::SimdFloatMultAcc              0      0.00%     57.14% # Class of executed instruction
system.cpu3.op_class::SimdFloatSqrt                 0      0.00%     57.14% # Class of executed instruction
system.cpu3.op_class::SimdReduceAdd                 0      0.00%     57.14% # Class of executed instruction
system.cpu3.op_class::SimdReduceAlu                 0      0.00%     57.14% # Class of executed instruction
system.cpu3.op_class::SimdReduceCmp                 0      0.00%     57.14% # Class of executed instruction
system.cpu3.op_class::SimdFloatReduceAdd            0      0.00%     57.14% # Class of executed instruction
system.cpu3.op_class::SimdFloatReduceCmp            0      0.00%     57.14% # Class of executed instruction
system.cpu3.op_class::SimdAes                       0      0.00%     57.14% # Class of executed instruction
system.cpu3.op_class::SimdAesMix                    0      0.00%     57.14% # Class of executed instruction
system.cpu3.op_class::SimdSha1Hash                  0      0.00%     57.14% # Class of executed instruction
system.cpu3.op_class::SimdSha1Hash2                 0      0.00%     57.14% # Class of executed instruction
system.cpu3.op_class::SimdSha256Hash                0      0.00%     57.14% # Class of executed instruction
system.cpu3.op_class::SimdSha256Hash2               0      0.00%     57.14% # Class of executed instruction
system.cpu3.op_class::SimdShaSigma2                 0      0.00%     57.14% # Class of executed instruction
system.cpu3.op_class::SimdShaSigma3                 0      0.00%     57.14% # Class of executed instruction
system.cpu3.op_class::SimdPredAlu                   0      0.00%     57.14% # Class of executed instruction
system.cpu3.op_class::MemRead                       1      4.76%     61.90% # Class of executed instruction
system.cpu3.op_class::MemWrite                      1      4.76%     66.67% # Class of executed instruction
system.cpu3.op_class::FloatMemRead                  7     33.33%    100.00% # Class of executed instruction
system.cpu3.op_class::FloatMemWrite                 0      0.00%    100.00% # Class of executed instruction
system.cpu3.op_class::IprAccess                     0      0.00%    100.00% # Class of executed instruction
system.cpu3.op_class::InstPrefetch                  0      0.00%    100.00% # Class of executed instruction
system.cpu3.op_class::total                        21                       # Class of executed instruction
system.cpu3.workload.numSyscalls                    0                       # Number of system calls
system.l3bus.snoop_filter.hit_multi_requests            0                       # Number of requests hitting in the snoop filter with multiple (>1) holders of the requested data.
system.l3bus.snoop_filter.hit_multi_snoops            0                       # Number of snoops hitting in the snoop filter with multiple (>1) holders of the requested data.
system.l3bus.snoop_filter.hit_single_requests      1696907                       # Number of requests hitting in the snoop filter with a single holder of the requested data.
system.l3bus.snoop_filter.hit_single_snoops            0                       # Number of snoops hitting in the snoop filter with a single holder of the requested data.
system.l3bus.snoop_filter.tot_requests        3431239                       # Total number of requests made to the snoop filter.
system.l3bus.snoop_filter.tot_snoops                0                       # Total number of snoops made to the snoop filter.
system.membus.snoop_filter.hit_multi_requests            0                       # Number of requests hitting in the snoop filter with multiple (>1) holders of the requested data.
system.membus.snoop_filter.hit_multi_snoops            0                       # Number of snoops hitting in the snoop filter with multiple (>1) holders of the requested data.
system.membus.snoop_filter.hit_single_requests      1615884                       # Number of requests hitting in the snoop filter with a single holder of the requested data.
system.membus.snoop_filter.hit_single_snoops            0                       # Number of snoops hitting in the snoop filter with a single holder of the requested data.
system.membus.snoop_filter.tot_requests       3311432                       # Total number of requests made to the snoop filter.
system.membus.snoop_filter.tot_snoops               0                       # Total number of snoops made to the snoop filter.
system.switch_cpus0.cc_regfile_reads         95335479                       # number of cc regfile reads
system.switch_cpus0.cc_regfile_writes        66981957                       # number of cc regfile writes
system.switch_cpus0.committedInsts          224117166                       # Number of Instructions Simulated
system.switch_cpus0.committedOps            355483383                       # Number of Ops (including micro ops) Simulated
system.switch_cpus0.cpi                      0.421983                       # CPI: Cycles Per Instruction
system.switch_cpus0.cpi_total                0.421983                       # CPI: Total CPI of All Threads
system.switch_cpus0.fp_regfile_reads        264006234                       # number of floating regfile reads
system.switch_cpus0.fp_regfile_writes       144739861                       # number of floating regfile writes
system.switch_cpus0.idleCycles                  39257                       # Total number of cycles that the CPU has spent unscheduled due to idling
system.switch_cpus0.iew.branchMispredicts         5622                       # Number of branch mispredicts detected at execute
system.switch_cpus0.iew.exec_branches        22501418                       # Number of branches executed
system.switch_cpus0.iew.exec_nop                    0                       # number of nop insts executed
system.switch_cpus0.iew.exec_rate            3.760041                       # Inst execution rate
system.switch_cpus0.iew.exec_refs            99381633                       # number of memory reference insts executed
system.switch_cpus0.iew.exec_stores          24860770                       # Number of stores executed
system.switch_cpus0.iew.exec_swp                    0                       # number of swp insts executed
system.switch_cpus0.iew.iewBlockCycles       23499238                       # Number of cycles IEW is blocking
system.switch_cpus0.iew.iewDispLoadInsts     74535930                       # Number of dispatched load instructions
system.switch_cpus0.iew.iewDispNonSpecInsts            0                       # Number of dispatched non-speculative instructions
system.switch_cpus0.iew.iewDispSquashedInsts         2570                       # Number of squashed instructions skipped by dispatch
system.switch_cpus0.iew.iewDispStoreInsts     24869351                       # Number of dispatched store instructions
system.switch_cpus0.iew.iewDispatchedInsts    355677232                       # Number of instructions dispatched to IQ
system.switch_cpus0.iew.iewExecLoadInsts     74520863                       # Number of load instructions executed
system.switch_cpus0.iew.iewExecSquashedInsts        16194                       # Number of squashed instructions skipped in execute
system.switch_cpus0.iew.iewExecutedInsts    355600586                       # Number of executed instructions
system.switch_cpus0.iew.iewIQFullEvents         46517                       # Number of times the IQ has become full, causing a stall
system.switch_cpus0.iew.iewIdleCycles               0                       # Number of cycles IEW is idle
system.switch_cpus0.iew.iewLSQFullEvents       189436                       # Number of times the LSQ has become full, causing a stall
system.switch_cpus0.iew.iewSquashCycles          6675                       # Number of cycles IEW is squashing
system.switch_cpus0.iew.iewUnblockCycles       269106                       # Number of cycles IEW is unblocking
system.switch_cpus0.iew.memOrderViolationEvents         1795                       # Number of memory order violations
system.switch_cpus0.iew.predictedNotTakenIncorrect         2553                       # Number of branches that were predicted not taken incorrectly
system.switch_cpus0.iew.predictedTakenIncorrect         3069                       # Number of branches that were predicted taken incorrectly
system.switch_cpus0.iew.wb_consumers        471964324                       # num instructions consuming a value
system.switch_cpus0.iew.wb_count            355590709                       # cumulative count of insts written-back
system.switch_cpus0.iew.wb_fanout            0.585802                       # average fanout of values written-back
system.switch_cpus0.iew.wb_producers        276477704                       # num instructions producing a value
system.switch_cpus0.iew.wb_rate              3.759937                       # insts written-back per cycle
system.switch_cpus0.iew.wb_sent             355594823                       # cumulative count of insts sent to commit
system.switch_cpus0.int_regfile_reads       369462520                       # number of integer regfile reads
system.switch_cpus0.int_regfile_writes      159951324                       # number of integer regfile writes
system.switch_cpus0.ipc                      2.369765                       # IPC: Instructions Per Cycle
system.switch_cpus0.ipc_total                2.369765                       # IPC: Total IPC of All Threads
system.switch_cpus0.iq.FU_type_0::No_OpClass         4118      0.00%      0.00% # Type of FU issued
system.switch_cpus0.iq.FU_type_0::IntAlu    173523008     48.79%     48.80% # Type of FU issued
system.switch_cpus0.iq.FU_type_0::IntMult       598737      0.17%     48.96% # Type of FU issued
system.switch_cpus0.iq.FU_type_0::IntDiv            0      0.00%     48.96% # Type of FU issued
system.switch_cpus0.iq.FU_type_0::FloatAdd      8869542      2.49%     51.46% # Type of FU issued
system.switch_cpus0.iq.FU_type_0::FloatCmp            0      0.00%     51.46% # Type of FU issued
system.switch_cpus0.iq.FU_type_0::FloatCvt            0      0.00%     51.46% # Type of FU issued
system.switch_cpus0.iq.FU_type_0::FloatMult            0      0.00%     51.46% # Type of FU issued
system.switch_cpus0.iq.FU_type_0::FloatMultAcc            0      0.00%     51.46% # Type of FU issued
system.switch_cpus0.iq.FU_type_0::FloatDiv            0      0.00%     51.46% # Type of FU issued
system.switch_cpus0.iq.FU_type_0::FloatMisc            0      0.00%     51.46% # Type of FU issued
system.switch_cpus0.iq.FU_type_0::FloatSqrt            0      0.00%     51.46% # Type of FU issued
system.switch_cpus0.iq.FU_type_0::SimdAdd            0      0.00%     51.46% # Type of FU issued
system.switch_cpus0.iq.FU_type_0::SimdAddAcc            0      0.00%     51.46% # Type of FU issued
system.switch_cpus0.iq.FU_type_0::SimdAlu      5914585      1.66%     53.12% # Type of FU issued
system.switch_cpus0.iq.FU_type_0::SimdCmp            0      0.00%     53.12% # Type of FU issued
system.switch_cpus0.iq.FU_type_0::SimdCvt            0      0.00%     53.12% # Type of FU issued
system.switch_cpus0.iq.FU_type_0::SimdMisc      4140149      1.16%     54.29% # Type of FU issued
system.switch_cpus0.iq.FU_type_0::SimdMult            0      0.00%     54.29% # Type of FU issued
system.switch_cpus0.iq.FU_type_0::SimdMultAcc            0      0.00%     54.29% # Type of FU issued
system.switch_cpus0.iq.FU_type_0::SimdShift            0      0.00%     54.29% # Type of FU issued
system.switch_cpus0.iq.FU_type_0::SimdShiftAcc            0      0.00%     54.29% # Type of FU issued
system.switch_cpus0.iq.FU_type_0::SimdDiv            0      0.00%     54.29% # Type of FU issued
system.switch_cpus0.iq.FU_type_0::SimdSqrt            0      0.00%     54.29% # Type of FU issued
system.switch_cpus0.iq.FU_type_0::SimdFloatAdd     24804458      6.98%     61.26% # Type of FU issued
system.switch_cpus0.iq.FU_type_0::SimdFloatAlu            0      0.00%     61.26% # Type of FU issued
system.switch_cpus0.iq.FU_type_0::SimdFloatCmp            0      0.00%     61.26% # Type of FU issued
system.switch_cpus0.iq.FU_type_0::SimdFloatCvt      4136676      1.16%     62.42% # Type of FU issued
system.switch_cpus0.iq.FU_type_0::SimdFloatDiv      2952644      0.83%     63.25% # Type of FU issued
system.switch_cpus0.iq.FU_type_0::SimdFloatMisc            0      0.00%     63.25% # Type of FU issued
system.switch_cpus0.iq.FU_type_0::SimdFloatMult     30104054      8.47%     71.72% # Type of FU issued
system.switch_cpus0.iq.FU_type_0::SimdFloatMultAcc            0      0.00%     71.72% # Type of FU issued
system.switch_cpus0.iq.FU_type_0::SimdFloatSqrt      1179313      0.33%     72.05% # Type of FU issued
system.switch_cpus0.iq.FU_type_0::SimdReduceAdd            0      0.00%     72.05% # Type of FU issued
system.switch_cpus0.iq.FU_type_0::SimdReduceAlu            0      0.00%     72.05% # Type of FU issued
system.switch_cpus0.iq.FU_type_0::SimdReduceCmp            0      0.00%     72.05% # Type of FU issued
system.switch_cpus0.iq.FU_type_0::SimdFloatReduceAdd            0      0.00%     72.05% # Type of FU issued
system.switch_cpus0.iq.FU_type_0::SimdFloatReduceCmp            0      0.00%     72.05% # Type of FU issued
system.switch_cpus0.iq.FU_type_0::SimdAes            0      0.00%     72.05% # Type of FU issued
system.switch_cpus0.iq.FU_type_0::SimdAesMix            0      0.00%     72.05% # Type of FU issued
system.switch_cpus0.iq.FU_type_0::SimdSha1Hash            0      0.00%     72.05% # Type of FU issued
system.switch_cpus0.iq.FU_type_0::SimdSha1Hash2            0      0.00%     72.05% # Type of FU issued
system.switch_cpus0.iq.FU_type_0::SimdSha256Hash            0      0.00%     72.05% # Type of FU issued
system.switch_cpus0.iq.FU_type_0::SimdSha256Hash2            0      0.00%     72.05% # Type of FU issued
system.switch_cpus0.iq.FU_type_0::SimdShaSigma2            0      0.00%     72.05% # Type of FU issued
system.switch_cpus0.iq.FU_type_0::SimdShaSigma3            0      0.00%     72.05% # Type of FU issued
system.switch_cpus0.iq.FU_type_0::SimdPredAlu            0      0.00%     72.05% # Type of FU issued
system.switch_cpus0.iq.FU_type_0::MemRead     28422423      7.99%     80.04% # Type of FU issued
system.switch_cpus0.iq.FU_type_0::MemWrite     10668106      3.00%     83.04% # Type of FU issued
system.switch_cpus0.iq.FU_type_0::FloatMemRead     46105417     12.96%     96.01% # Type of FU issued
system.switch_cpus0.iq.FU_type_0::FloatMemWrite     14193554      3.99%    100.00% # Type of FU issued
system.switch_cpus0.iq.FU_type_0::IprAccess            0      0.00%    100.00% # Type of FU issued
system.switch_cpus0.iq.FU_type_0::InstPrefetch            0      0.00%    100.00% # Type of FU issued
system.switch_cpus0.iq.FU_type_0::total     355616784                       # Type of FU issued
system.switch_cpus0.iq.fp_alu_accesses      169945925                       # Number of floating point alu accesses
system.switch_cpus0.iq.fp_inst_queue_reads    337161019                       # Number of floating instruction queue reads
system.switch_cpus0.iq.fp_inst_queue_wakeup_accesses    167205066                       # Number of floating instruction queue wakeup accesses
system.switch_cpus0.iq.fp_inst_queue_writes    167283731                       # Number of floating instruction queue writes
system.switch_cpus0.iq.fu_busy_cnt            5392865                       # FU busy when requested
system.switch_cpus0.iq.fu_busy_rate          0.015165                       # FU busy rate (busy events/executed inst)
system.switch_cpus0.iq.fu_full::No_OpClass            0      0.00%      0.00% # attempts to use FU when none available
system.switch_cpus0.iq.fu_full::IntAlu        1195272     22.16%     22.16% # attempts to use FU when none available
system.switch_cpus0.iq.fu_full::IntMult             0      0.00%     22.16% # attempts to use FU when none available
system.switch_cpus0.iq.fu_full::IntDiv              0      0.00%     22.16% # attempts to use FU when none available
system.switch_cpus0.iq.fu_full::FloatAdd            0      0.00%     22.16% # attempts to use FU when none available
system.switch_cpus0.iq.fu_full::FloatCmp            0      0.00%     22.16% # attempts to use FU when none available
system.switch_cpus0.iq.fu_full::FloatCvt            0      0.00%     22.16% # attempts to use FU when none available
system.switch_cpus0.iq.fu_full::FloatMult            0      0.00%     22.16% # attempts to use FU when none available
system.switch_cpus0.iq.fu_full::FloatMultAcc            0      0.00%     22.16% # attempts to use FU when none available
system.switch_cpus0.iq.fu_full::FloatDiv            0      0.00%     22.16% # attempts to use FU when none available
system.switch_cpus0.iq.fu_full::FloatMisc            0      0.00%     22.16% # attempts to use FU when none available
system.switch_cpus0.iq.fu_full::FloatSqrt            0      0.00%     22.16% # attempts to use FU when none available
system.switch_cpus0.iq.fu_full::SimdAdd             0      0.00%     22.16% # attempts to use FU when none available
system.switch_cpus0.iq.fu_full::SimdAddAcc            0      0.00%     22.16% # attempts to use FU when none available
system.switch_cpus0.iq.fu_full::SimdAlu         34902      0.65%     22.81% # attempts to use FU when none available
system.switch_cpus0.iq.fu_full::SimdCmp             0      0.00%     22.81% # attempts to use FU when none available
system.switch_cpus0.iq.fu_full::SimdCvt             0      0.00%     22.81% # attempts to use FU when none available
system.switch_cpus0.iq.fu_full::SimdMisc            4      0.00%     22.81% # attempts to use FU when none available
system.switch_cpus0.iq.fu_full::SimdMult            0      0.00%     22.81% # attempts to use FU when none available
system.switch_cpus0.iq.fu_full::SimdMultAcc            0      0.00%     22.81% # attempts to use FU when none available
system.switch_cpus0.iq.fu_full::SimdShift            0      0.00%     22.81% # attempts to use FU when none available
system.switch_cpus0.iq.fu_full::SimdShiftAcc            0      0.00%     22.81% # attempts to use FU when none available
system.switch_cpus0.iq.fu_full::SimdDiv             0      0.00%     22.81% # attempts to use FU when none available
system.switch_cpus0.iq.fu_full::SimdSqrt            0      0.00%     22.81% # attempts to use FU when none available
system.switch_cpus0.iq.fu_full::SimdFloatAdd        36603      0.68%     23.49% # attempts to use FU when none available
system.switch_cpus0.iq.fu_full::SimdFloatAlu            0      0.00%     23.49% # attempts to use FU when none available
system.switch_cpus0.iq.fu_full::SimdFloatCmp            0      0.00%     23.49% # attempts to use FU when none available
system.switch_cpus0.iq.fu_full::SimdFloatCvt            0      0.00%     23.49% # attempts to use FU when none available
system.switch_cpus0.iq.fu_full::SimdFloatDiv            0      0.00%     23.49% # attempts to use FU when none available
system.switch_cpus0.iq.fu_full::SimdFloatMisc            0      0.00%     23.49% # attempts to use FU when none available
system.switch_cpus0.iq.fu_full::SimdFloatMult       180160      3.34%     26.83% # attempts to use FU when none available
system.switch_cpus0.iq.fu_full::SimdFloatMultAcc            0      0.00%     26.83% # attempts to use FU when none available
system.switch_cpus0.iq.fu_full::SimdFloatSqrt            0      0.00%     26.83% # attempts to use FU when none available
system.switch_cpus0.iq.fu_full::SimdReduceAdd            0      0.00%     26.83% # attempts to use FU when none available
system.switch_cpus0.iq.fu_full::SimdReduceAlu            0      0.00%     26.83% # attempts to use FU when none available
system.switch_cpus0.iq.fu_full::SimdReduceCmp            0      0.00%     26.83% # attempts to use FU when none available
system.switch_cpus0.iq.fu_full::SimdFloatReduceAdd            0      0.00%     26.83% # attempts to use FU when none available
system.switch_cpus0.iq.fu_full::SimdFloatReduceCmp            0      0.00%     26.83% # attempts to use FU when none available
system.switch_cpus0.iq.fu_full::SimdAes             0      0.00%     26.83% # attempts to use FU when none available
system.switch_cpus0.iq.fu_full::SimdAesMix            0      0.00%     26.83% # attempts to use FU when none available
system.switch_cpus0.iq.fu_full::SimdSha1Hash            0      0.00%     26.83% # attempts to use FU when none available
system.switch_cpus0.iq.fu_full::SimdSha1Hash2            0      0.00%     26.83% # attempts to use FU when none available
system.switch_cpus0.iq.fu_full::SimdSha256Hash            0      0.00%     26.83% # attempts to use FU when none available
system.switch_cpus0.iq.fu_full::SimdSha256Hash2            0      0.00%     26.83% # attempts to use FU when none available
system.switch_cpus0.iq.fu_full::SimdShaSigma2            0      0.00%     26.83% # attempts to use FU when none available
system.switch_cpus0.iq.fu_full::SimdShaSigma3            0      0.00%     26.83% # attempts to use FU when none available
system.switch_cpus0.iq.fu_full::SimdPredAlu            0      0.00%     26.83% # attempts to use FU when none available
system.switch_cpus0.iq.fu_full::MemRead       1439065     26.68%     53.52% # attempts to use FU when none available
system.switch_cpus0.iq.fu_full::MemWrite        27520      0.51%     54.03% # attempts to use FU when none available
system.switch_cpus0.iq.fu_full::FloatMemRead      2478433     45.96%     99.98% # attempts to use FU when none available
system.switch_cpus0.iq.fu_full::FloatMemWrite          906      0.02%    100.00% # attempts to use FU when none available
system.switch_cpus0.iq.fu_full::IprAccess            0      0.00%    100.00% # attempts to use FU when none available
system.switch_cpus0.iq.fu_full::InstPrefetch            0      0.00%    100.00% # attempts to use FU when none available
system.switch_cpus0.iq.int_alu_accesses     191059606                       # Number of integer alu accesses
system.switch_cpus0.iq.int_inst_queue_reads    474001627                       # Number of integer instruction queue reads
system.switch_cpus0.iq.int_inst_queue_wakeup_accesses    188385643                       # Number of integer instruction queue wakeup accesses
system.switch_cpus0.iq.int_inst_queue_writes    188589078                       # Number of integer instruction queue writes
system.switch_cpus0.iq.iqInstsAdded         355677232                       # Number of instructions added to the IQ (excludes non-spec)
system.switch_cpus0.iq.iqInstsIssued        355616784                       # Number of instructions issued
system.switch_cpus0.iq.iqSquashedInstsExamined       193786                       # Number of squashed instructions iterated over during squash; mainly for profiling
system.switch_cpus0.iq.iqSquashedInstsIssued         1885                       # Number of squashed instructions issued
system.switch_cpus0.iq.iqSquashedOperandsExamined       250090                       # Number of squashed operands that are examined and possibly removed from graph
system.switch_cpus0.iq.issued_per_cycle::samples     94534332                       # Number of insts issued each cycle
system.switch_cpus0.iq.issued_per_cycle::mean     3.761774                       # Number of insts issued each cycle
system.switch_cpus0.iq.issued_per_cycle::stdev     2.979448                       # Number of insts issued each cycle
system.switch_cpus0.iq.issued_per_cycle::underflows            0      0.00%      0.00% # Number of insts issued each cycle
system.switch_cpus0.iq.issued_per_cycle::0     26820740     28.37%     28.37% # Number of insts issued each cycle
system.switch_cpus0.iq.issued_per_cycle::1      2950052      3.12%     31.49% # Number of insts issued each cycle
system.switch_cpus0.iq.issued_per_cycle::2      5990354      6.34%     37.83% # Number of insts issued each cycle
system.switch_cpus0.iq.issued_per_cycle::3      7358001      7.78%     45.61% # Number of insts issued each cycle
system.switch_cpus0.iq.issued_per_cycle::4      8491721      8.98%     54.59% # Number of insts issued each cycle
system.switch_cpus0.iq.issued_per_cycle::5     10549070     11.16%     65.75% # Number of insts issued each cycle
system.switch_cpus0.iq.issued_per_cycle::6      9341686      9.88%     75.64% # Number of insts issued each cycle
system.switch_cpus0.iq.issued_per_cycle::7      8411993      8.90%     84.53% # Number of insts issued each cycle
system.switch_cpus0.iq.issued_per_cycle::8     14620715     15.47%    100.00% # Number of insts issued each cycle
system.switch_cpus0.iq.issued_per_cycle::overflows            0      0.00%    100.00% # Number of insts issued each cycle
system.switch_cpus0.iq.issued_per_cycle::min_value            0                       # Number of insts issued each cycle
system.switch_cpus0.iq.issued_per_cycle::max_value            8                       # Number of insts issued each cycle
system.switch_cpus0.iq.issued_per_cycle::total     94534332                       # Number of insts issued each cycle
system.switch_cpus0.iq.rate                  3.760212                       # Inst issue rate
system.switch_cpus0.iq.vec_alu_accesses             0                       # Number of vector alu accesses
system.switch_cpus0.iq.vec_inst_queue_reads            0                       # Number of vector instruction queue reads
system.switch_cpus0.iq.vec_inst_queue_wakeup_accesses            0                       # Number of vector instruction queue wakeup accesses
system.switch_cpus0.iq.vec_inst_queue_writes            0                       # Number of vector instruction queue writes
system.switch_cpus0.memDep0.conflictingLoads      4151921                       # Number of conflicting loads.
system.switch_cpus0.memDep0.conflictingStores       847883                       # Number of conflicting stores.
system.switch_cpus0.memDep0.insertedLoads     74535930                       # Number of loads inserted to the mem dependence unit.
system.switch_cpus0.memDep0.insertedStores     24869351                       # Number of stores inserted to the mem dependence unit.
system.switch_cpus0.misc_regfile_reads      159764401                       # number of misc regfile reads
system.switch_cpus0.misc_regfile_writes             1                       # number of misc regfile writes
system.switch_cpus0.numCycles                94573589                       # number of cpu cycles simulated
system.switch_cpus0.numWorkItemsCompleted            0                       # number of work items this cpu completed
system.switch_cpus0.numWorkItemsStarted             0                       # number of work items this cpu started
system.switch_cpus0.timesIdled                    124                       # Number of times that the entire CPU went into an idle state and unscheduled itself
system.switch_cpus1.cc_regfile_reads          2684504                       # number of cc regfile reads
system.switch_cpus1.cc_regfile_writes         1270129                       # number of cc regfile writes
system.switch_cpus1.committedInsts           74717226                       # Number of Instructions Simulated
system.switch_cpus1.committedOps             82140135                       # Number of Ops (including micro ops) Simulated
system.switch_cpus1.cpi                      1.265753                       # CPI: Cycles Per Instruction
system.switch_cpus1.cpi_total                1.265753                       # CPI: Total CPI of All Threads
system.switch_cpus1.fp_regfile_reads        137247691                       # number of floating regfile reads
system.switch_cpus1.fp_regfile_writes        61922215                       # number of floating regfile writes
system.switch_cpus1.idleCycles                   8648                       # Total number of cycles that the CPU has spent unscheduled due to idling
system.switch_cpus1.iew.branchMispredicts         1618                       # Number of branch mispredicts detected at execute
system.switch_cpus1.iew.exec_branches          473913                       # Number of branches executed
system.switch_cpus1.iew.exec_nop                    0                       # number of nop insts executed
system.switch_cpus1.iew.exec_rate            1.016348                       # Inst execution rate
system.switch_cpus1.iew.exec_refs            46207306                       # number of memory reference insts executed
system.switch_cpus1.iew.exec_stores           9191052                       # Number of stores executed
system.switch_cpus1.iew.exec_swp                    0                       # number of swp insts executed
system.switch_cpus1.iew.iewBlockCycles       15332971                       # Number of cycles IEW is blocking
system.switch_cpus1.iew.iewDispLoadInsts     23088819                       # Number of dispatched load instructions
system.switch_cpus1.iew.iewDispNonSpecInsts            0                       # Number of dispatched non-speculative instructions
system.switch_cpus1.iew.iewDispSquashedInsts           27                       # Number of squashed instructions skipped by dispatch
system.switch_cpus1.iew.iewDispStoreInsts      9202859                       # Number of dispatched store instructions
system.switch_cpus1.iew.iewDispatchedInsts     82210818                       # Number of instructions dispatched to IQ
system.switch_cpus1.iew.iewExecLoadInsts     37016254                       # Number of load instructions executed
system.switch_cpus1.iew.iewExecSquashedInsts         1599                       # Number of squashed instructions skipped in execute
system.switch_cpus1.iew.iewExecutedInsts     96119675                       # Number of executed instructions
system.switch_cpus1.iew.iewIQFullEvents        113867                       # Number of times the IQ has become full, causing a stall
system.switch_cpus1.iew.iewIdleCycles               0                       # Number of cycles IEW is idle
system.switch_cpus1.iew.iewLSQFullEvents     11513806                       # Number of times the LSQ has become full, causing a stall
system.switch_cpus1.iew.iewSquashCycles          1897                       # Number of cycles IEW is squashing
system.switch_cpus1.iew.iewUnblockCycles     11661665                       # Number of cycles IEW is unblocking
system.switch_cpus1.iew.memOrderViolationEvents          595                       # Number of memory order violations
system.switch_cpus1.iew.predictedNotTakenIncorrect         1602                       # Number of branches that were predicted not taken incorrectly
system.switch_cpus1.iew.predictedTakenIncorrect           16                       # Number of branches that were predicted taken incorrectly
system.switch_cpus1.iew.wb_consumers        112725899                       # num instructions consuming a value
system.switch_cpus1.iew.wb_count             82173848                       # cumulative count of insts written-back
system.switch_cpus1.iew.wb_fanout            0.536543                       # average fanout of values written-back
system.switch_cpus1.iew.wb_producers         60482239                       # num instructions producing a value
system.switch_cpus1.iew.wb_rate              0.868888                       # insts written-back per cycle
system.switch_cpus1.iew.wb_sent              82174775                       # cumulative count of insts sent to commit
system.switch_cpus1.int_regfile_reads       102905274                       # number of integer regfile reads
system.switch_cpus1.int_regfile_writes       10587689                       # number of integer regfile writes
system.switch_cpus1.ipc                      0.790043                       # IPC: Instructions Per Cycle
system.switch_cpus1.ipc_total                0.790043                       # IPC: Total IPC of All Threads
system.switch_cpus1.iq.FU_type_0::No_OpClass            0      0.00%      0.00% # Type of FU issued
system.switch_cpus1.iq.FU_type_0::IntAlu     11941287     12.42%     12.42% # Type of FU issued
system.switch_cpus1.iq.FU_type_0::IntMult            0      0.00%     12.42% # Type of FU issued
system.switch_cpus1.iq.FU_type_0::IntDiv            0      0.00%     12.42% # Type of FU issued
system.switch_cpus1.iq.FU_type_0::FloatAdd            0      0.00%     12.42% # Type of FU issued
system.switch_cpus1.iq.FU_type_0::FloatCmp            0      0.00%     12.42% # Type of FU issued
system.switch_cpus1.iq.FU_type_0::FloatCvt            0      0.00%     12.42% # Type of FU issued
system.switch_cpus1.iq.FU_type_0::FloatMult            0      0.00%     12.42% # Type of FU issued
system.switch_cpus1.iq.FU_type_0::FloatMultAcc            0      0.00%     12.42% # Type of FU issued
system.switch_cpus1.iq.FU_type_0::FloatDiv            0      0.00%     12.42% # Type of FU issued
system.switch_cpus1.iq.FU_type_0::FloatMisc            0      0.00%     12.42% # Type of FU issued
system.switch_cpus1.iq.FU_type_0::FloatSqrt            0      0.00%     12.42% # Type of FU issued
system.switch_cpus1.iq.FU_type_0::SimdAdd            0      0.00%     12.42% # Type of FU issued
system.switch_cpus1.iq.FU_type_0::SimdAddAcc            0      0.00%     12.42% # Type of FU issued
system.switch_cpus1.iq.FU_type_0::SimdAlu           13      0.00%     12.42% # Type of FU issued
system.switch_cpus1.iq.FU_type_0::SimdCmp            0      0.00%     12.42% # Type of FU issued
system.switch_cpus1.iq.FU_type_0::SimdCvt            0      0.00%     12.42% # Type of FU issued
system.switch_cpus1.iq.FU_type_0::SimdMisc            0      0.00%     12.42% # Type of FU issued
system.switch_cpus1.iq.FU_type_0::SimdMult            0      0.00%     12.42% # Type of FU issued
system.switch_cpus1.iq.FU_type_0::SimdMultAcc            0      0.00%     12.42% # Type of FU issued
system.switch_cpus1.iq.FU_type_0::SimdShift            0      0.00%     12.42% # Type of FU issued
system.switch_cpus1.iq.FU_type_0::SimdShiftAcc            0      0.00%     12.42% # Type of FU issued
system.switch_cpus1.iq.FU_type_0::SimdDiv            0      0.00%     12.42% # Type of FU issued
system.switch_cpus1.iq.FU_type_0::SimdSqrt            0      0.00%     12.42% # Type of FU issued
system.switch_cpus1.iq.FU_type_0::SimdFloatAdd     23367673     24.31%     36.73% # Type of FU issued
system.switch_cpus1.iq.FU_type_0::SimdFloatAlu            0      0.00%     36.73% # Type of FU issued
system.switch_cpus1.iq.FU_type_0::SimdFloatCmp            0      0.00%     36.73% # Type of FU issued
system.switch_cpus1.iq.FU_type_0::SimdFloatCvt            0      0.00%     36.73% # Type of FU issued
system.switch_cpus1.iq.FU_type_0::SimdFloatDiv       461160      0.48%     37.21% # Type of FU issued
system.switch_cpus1.iq.FU_type_0::SimdFloatMisc            0      0.00%     37.21% # Type of FU issued
system.switch_cpus1.iq.FU_type_0::SimdFloatMult     14142289     14.71%     51.93% # Type of FU issued
system.switch_cpus1.iq.FU_type_0::SimdFloatMultAcc            0      0.00%     51.93% # Type of FU issued
system.switch_cpus1.iq.FU_type_0::SimdFloatSqrt            0      0.00%     51.93% # Type of FU issued
system.switch_cpus1.iq.FU_type_0::SimdReduceAdd            0      0.00%     51.93% # Type of FU issued
system.switch_cpus1.iq.FU_type_0::SimdReduceAlu            0      0.00%     51.93% # Type of FU issued
system.switch_cpus1.iq.FU_type_0::SimdReduceCmp            0      0.00%     51.93% # Type of FU issued
system.switch_cpus1.iq.FU_type_0::SimdFloatReduceAdd            0      0.00%     51.93% # Type of FU issued
system.switch_cpus1.iq.FU_type_0::SimdFloatReduceCmp            0      0.00%     51.93% # Type of FU issued
system.switch_cpus1.iq.FU_type_0::SimdAes            0      0.00%     51.93% # Type of FU issued
system.switch_cpus1.iq.FU_type_0::SimdAesMix            0      0.00%     51.93% # Type of FU issued
system.switch_cpus1.iq.FU_type_0::SimdSha1Hash            0      0.00%     51.93% # Type of FU issued
system.switch_cpus1.iq.FU_type_0::SimdSha1Hash2            0      0.00%     51.93% # Type of FU issued
system.switch_cpus1.iq.FU_type_0::SimdSha256Hash            0      0.00%     51.93% # Type of FU issued
system.switch_cpus1.iq.FU_type_0::SimdSha256Hash2            0      0.00%     51.93% # Type of FU issued
system.switch_cpus1.iq.FU_type_0::SimdShaSigma2            0      0.00%     51.93% # Type of FU issued
system.switch_cpus1.iq.FU_type_0::SimdShaSigma3            0      0.00%     51.93% # Type of FU issued
[...]
system.switch_cpus3.commit.numCommittedDist::stdev     3.283965                       # Number of insts commited each cycle
system.switch_cpus3.commit.numCommittedDist::underflows            0      0.00%      0.00% # Number of insts commited each cycle
system.switch_cpus3.commit.numCommittedDist::0     15259910     17.39%     17.39% # Number of insts commited each cycle
system.switch_cpus3.commit.numCommittedDist::1      6905031      7.87%     25.26% # Number of insts commited each cycle
system.switch_cpus3.commit.numCommittedDist::2      4823943      5.50%     30.75% # Number of insts commited each cycle
system.switch_cpus3.commit.numCommittedDist::3      9619559     10.96%     41.71% # Number of insts commited each cycle
system.switch_cpus3.commit.numCommittedDist::4      3055920      3.48%     45.20% # Number of insts commited each cycle
system.switch_cpus3.commit.numCommittedDist::5      2137924      2.44%     47.63% # Number of insts commited each cycle
system.switch_cpus3.commit.numCommittedDist::6      3244153      3.70%     51.33% # Number of insts commited each cycle
system.switch_cpus3.commit.numCommittedDist::7      3270350      3.73%     55.06% # Number of insts commited each cycle
system.switch_cpus3.commit.numCommittedDist::8     39443045     44.94%    100.00% # Number of insts commited each cycle
system.switch_cpus3.commit.numCommittedDist::overflows            0      0.00%    100.00% # Number of insts commited each cycle
system.switch_cpus3.commit.numCommittedDist::min_value            0                       # Number of insts commited each cycle
system.switch_cpus3.commit.numCommittedDist::max_value            8                       # Number of insts commited each cycle
system.switch_cpus3.commit.numCommittedDist::total     87759835                       # Number of insts commited each cycle
system.switch_cpus3.commit.instsCommitted    236538993                       # Number of instructions committed
system.switch_cpus3.commit.opsCommitted     426226622                       # Number of ops (including micro ops) committed
system.switch_cpus3.commit.memRefs          125047940                       # Number of memory references committed
system.switch_cpus3.commit.loads             86843279                       # Number of loads committed
system.switch_cpus3.commit.amos                     0                       # Number of atomic instructions committed
system.switch_cpus3.commit.membars                  0                       # Number of memory barriers committed
system.switch_cpus3.commit.branches          41887013                       # Number of branches committed
system.switch_cpus3.commit.vector                   0                       # Number of committed Vector instructions.
system.switch_cpus3.commit.floating          88723685                       # Number of committed floating point instructions.
system.switch_cpus3.commit.integer          374442314                       # Number of committed integer instructions.
system.switch_cpus3.commit.functionCalls      6562676                       # Number of function calls committed.
system.switch_cpus3.commit.committedInstType_0::No_OpClass      2283381      0.54%      0.54% # Class of committed instruction
system.switch_cpus3.commit.committedInstType_0::IntAlu    254196073     59.64%     60.17% # Class of committed instruction
system.switch_cpus3.commit.committedInstType_0::IntMult       893424      0.21%     60.38% # Class of committed instruction
system.switch_cpus3.commit.committedInstType_0::IntDiv            0      0.00%     60.38% # Class of committed instruction
system.switch_cpus3.commit.committedInstType_0::FloatAdd       967254      0.23%     60.61% # Class of committed instruction
system.switch_cpus3.commit.committedInstType_0::FloatCmp            0      0.00%     60.61% # Class of committed instruction
system.switch_cpus3.commit.committedInstType_0::FloatCvt            0      0.00%     60.61% # Class of committed instruction
system.switch_cpus3.commit.committedInstType_0::FloatMult            0      0.00%     60.61% # Class of committed instruction
system.switch_cpus3.commit.committedInstType_0::FloatMultAcc            0      0.00%     60.61% # Class of committed instruction
system.switch_cpus3.commit.committedInstType_0::FloatDiv            0      0.00%     60.61% # Class of committed instruction
system.switch_cpus3.commit.committedInstType_0::FloatMisc            0      0.00%     60.61% # Class of committed instruction
system.switch_cpus3.commit.committedInstType_0::FloatSqrt            0      0.00%     60.61% # Class of committed instruction
system.switch_cpus3.commit.committedInstType_0::SimdAdd            0      0.00%     60.61% # Class of committed instruction
system.switch_cpus3.commit.committedInstType_0::SimdAddAcc            0      0.00%     60.61% # Class of committed instruction
system.switch_cpus3.commit.committedInstType_0::SimdAlu      2781688      0.65%     61.26% # Class of committed instruction
system.switch_cpus3.commit.committedInstType_0::SimdCmp            0      0.00%     61.26% # Class of committed instruction
system.switch_cpus3.commit.committedInstType_0::SimdCvt            0      0.00%     61.26% # Class of committed instruction
system.switch_cpus3.commit.committedInstType_0::SimdMisc        76089      0.02%     61.28% # Class of committed instruction
system.switch_cpus3.commit.committedInstType_0::SimdMult            0      0.00%     61.28% # Class of committed instruction
system.switch_cpus3.commit.committedInstType_0::SimdMultAcc            0      0.00%     61.28% # Class of committed instruction
system.switch_cpus3.commit.committedInstType_0::SimdShift            0      0.00%     61.28% # Class of committed instruction
system.switch_cpus3.commit.committedInstType_0::SimdShiftAcc            0      0.00%     61.28% # Class of committed instruction
system.switch_cpus3.commit.committedInstType_0::SimdDiv            0      0.00%     61.28% # Class of committed instruction
system.switch_cpus3.commit.committedInstType_0::SimdSqrt            0      0.00%     61.28% # Class of committed instruction
system.switch_cpus3.commit.committedInstType_0::SimdFloatAdd     16259604      3.81%     65.10% # Class of committed instruction
system.switch_cpus3.commit.committedInstType_0::SimdFloatAlu            0      0.00%     65.10% # Class of committed instruction
system.switch_cpus3.commit.committedInstType_0::SimdFloatCmp        58368      0.01%     65.11% # Class of committed instruction
system.switch_cpus3.commit.committedInstType_0::SimdFloatCvt      7021918      1.65%     66.76% # Class of committed instruction
system.switch_cpus3.commit.committedInstType_0::SimdFloatDiv       563495      0.13%     66.89% # Class of committed instruction
system.switch_cpus3.commit.committedInstType_0::SimdFloatMisc            0      0.00%     66.89% # Class of committed instruction
system.switch_cpus3.commit.committedInstType_0::SimdFloatMult     16046832      3.76%     70.65% # Class of committed instruction
system.switch_cpus3.commit.committedInstType_0::SimdFloatMultAcc            0      0.00%     70.65% # Class of committed instruction
system.switch_cpus3.commit.committedInstType_0::SimdFloatSqrt        30556      0.01%     70.66% # Class of committed instruction
system.switch_cpus3.commit.committedInstType_0::SimdReduceAdd            0      0.00%     70.66% # Class of committed instruction
system.switch_cpus3.commit.committedInstType_0::SimdReduceAlu            0      0.00%     70.66% # Class of committed instruction
system.switch_cpus3.commit.committedInstType_0::SimdReduceCmp            0      0.00%     70.66% # Class of committed instruction
system.switch_cpus3.commit.committedInstType_0::SimdFloatReduceAdd            0      0.00%     70.66% # Class of committed instruction
system.switch_cpus3.commit.committedInstType_0::SimdFloatReduceCmp            0      0.00%     70.66% # Class of committed instruction
system.switch_cpus3.commit.committedInstType_0::SimdAes            0      0.00%     70.66% # Class of committed instruction
system.switch_cpus3.commit.committedInstType_0::SimdAesMix            0      0.00%     70.66% # Class of committed instruction
system.switch_cpus3.commit.committedInstType_0::SimdSha1Hash            0      0.00%     70.66% # Class of committed instruction
system.switch_cpus3.commit.committedInstType_0::SimdSha1Hash2            0      0.00%     70.66% # Class of committed instruction
system.switch_cpus3.commit.committedInstType_0::SimdSha256Hash            0      0.00%     70.66% # Class of committed instruction
system.switch_cpus3.commit.committedInstType_0::SimdSha256Hash2            0      0.00%     70.66% # Class of committed instruction
system.switch_cpus3.commit.committedInstType_0::SimdShaSigma2            0      0.00%     70.66% # Class of committed instruction
system.switch_cpus3.commit.committedInstType_0::SimdShaSigma3            0      0.00%     70.66% # Class of committed instruction
system.switch_cpus3.commit.committedInstType_0::SimdPredAlu            0      0.00%     70.66% # Class of committed instruction
system.switch_cpus3.commit.committedInstType_0::MemRead     53606214     12.58%     83.24% # Class of committed instruction
system.switch_cpus3.commit.committedInstType_0::MemWrite     32286718      7.58%     90.81% # Class of committed instruction
system.switch_cpus3.commit.committedInstType_0::FloatMemRead     33237065      7.80%     98.61% # Class of committed instruction
system.switch_cpus3.commit.committedInstType_0::FloatMemWrite      5917943      1.39%    100.00% # Class of committed instruction
system.switch_cpus3.commit.committedInstType_0::IprAccess            0      0.00%    100.00% # Class of committed instruction
system.switch_cpus3.commit.committedInstType_0::InstPrefetch            0      0.00%    100.00% # Class of committed instruction
system.switch_cpus3.commit.committedInstType_0::total    426226622                       # Class of committed instruction
system.switch_cpus3.commit.commitEligibleSamples     39443045                       # number cycles where commit BW limit reached
system.switch_cpus3.decode.idleCycles         5648994                       # Number of cycles decode is idle
system.switch_cpus3.decode.blockedCycles     14458614                       # Number of cycles decode is blocked
system.switch_cpus3.decode.runCycles         67651060                       # Number of cycles decode is running
system.switch_cpus3.decode.unblockCycles      5765280                       # Number of cycles decode is unblocking
system.switch_cpus3.decode.squashCycles        953094                       # Number of cycles decode is squashing
system.switch_cpus3.decode.branchResolved     20186356                       # Number of times decode resolved a  branch
system.switch_cpus3.decode.branchMispred        66689                       # Number of times decode detected a branch misprediction
system.switch_cpus3.decode.decodedInsts     494281061                       # Number of instructions handled by decode
system.switch_cpus3.decode.squashedInsts       402629                       # Number of squashed instructions handled by decode
system.switch_cpus3.dtb.rdAccesses           93299773                       # TLB accesses on read requests
system.switch_cpus3.dtb.wrAccesses           40335204                       # TLB accesses on write requests
system.switch_cpus3.dtb.rdMisses               616020                       # TLB misses on read requests
system.switch_cpus3.dtb.wrMisses               103024                       # TLB misses on write requests
system.switch_cpus3.dtb.walker.power_state.pwrStateResidencyTicks::UNDEFINED 13750545612411                       # Cumulative time (in ticks) in various power states
system.switch_cpus3.fetch.icacheStallCycles       946237                       # Number of cycles fetch is stalled on an Icache miss
system.switch_cpus3.fetch.insts             279638758                       # Number of instructions fetch has processed
system.switch_cpus3.fetch.branches           49793312                       # Number of branches that fetch encountered
system.switch_cpus3.fetch.predictedBranches     31189616                       # Number of branches that fetch has predicted taken
system.switch_cpus3.fetch.cycles             92511551                       # Number of cycles fetch has run and was not squashing or blocked
system.switch_cpus3.fetch.squashCycles        2038514                       # Number of cycles fetch has spent squashing
system.switch_cpus3.fetch.cacheLines         43085367                       # Number of cache lines fetched
system.switch_cpus3.fetch.icacheSquashes          292                       # Number of outstanding Icache misses that were squashed
system.switch_cpus3.fetch.nisnDist::samples     94477045                       # Number of instructions fetched each cycle (Total)
system.switch_cpus3.fetch.nisnDist::mean     5.358104                       # Number of instructions fetched each cycle (Total)
system.switch_cpus3.fetch.nisnDist::stdev     2.947217                       # Number of instructions fetched each cycle (Total)
system.switch_cpus3.fetch.nisnDist::underflows            0      0.00%      0.00% # Number of instructions fetched each cycle (Total)
system.switch_cpus3.fetch.nisnDist::0        11097578     11.75%     11.75% # Number of instructions fetched each cycle (Total)
system.switch_cpus3.fetch.nisnDist::1         3973653      4.21%     15.95% # Number of instructions fetched each cycle (Total)
system.switch_cpus3.fetch.nisnDist::2         6268214      6.63%     22.59% # Number of instructions fetched each cycle (Total)
system.switch_cpus3.fetch.nisnDist::3         4118993      4.36%     26.95% # Number of instructions fetched each cycle (Total)
system.switch_cpus3.fetch.nisnDist::4        11413118     12.08%     39.03% # Number of instructions fetched each cycle (Total)
system.switch_cpus3.fetch.nisnDist::5         3094147      3.28%     42.30% # Number of instructions fetched each cycle (Total)
system.switch_cpus3.fetch.nisnDist::6         8072229      8.54%     50.85% # Number of instructions fetched each cycle (Total)
system.switch_cpus3.fetch.nisnDist::7         3718754      3.94%     54.78% # Number of instructions fetched each cycle (Total)
system.switch_cpus3.fetch.nisnDist::8        42720359     45.22%    100.00% # Number of instructions fetched each cycle (Total)
system.switch_cpus3.fetch.nisnDist::overflows            0      0.00%    100.00% # Number of instructions fetched each cycle (Total)
system.switch_cpus3.fetch.nisnDist::min_value            0                       # Number of instructions fetched each cycle (Total)
system.switch_cpus3.fetch.nisnDist::max_value            8                       # Number of instructions fetched each cycle (Total)
system.switch_cpus3.fetch.nisnDist::total     94477045                       # Number of instructions fetched each cycle (Total)
system.switch_cpus3.fetch.branchRate         0.526503                       # Number of branch fetches per cycle
system.switch_cpus3.fetch.rate               2.956838                       # Number of inst fetches per cycle
system.switch_cpus3.itb.rdAccesses                  0                       # TLB accesses on read requests
system.switch_cpus3.itb.wrAccesses           43085367                       # TLB accesses on write requests
system.switch_cpus3.itb.rdMisses                    0                       # TLB misses on read requests
system.switch_cpus3.itb.wrMisses                   58                       # TLB misses on write requests
system.switch_cpus3.itb.walker.power_state.pwrStateResidencyTicks::UNDEFINED 13750545612411                       # Cumulative time (in ticks) in various power states
system.switch_cpus3.lsq0.forwLoads           17372824                       # Number of loads that had data forwarded from stores
system.switch_cpus3.lsq0.squashedLoads       10799678                       # Number of loads squashed
system.switch_cpus3.lsq0.ignoredResponses         5588                       # Number of memory responses ignored because the instruction is squashed
system.switch_cpus3.lsq0.memOrderViolation        16367                       # Number of memory ordering violations
system.switch_cpus3.lsq0.squashedStores       4672841                       # Number of stores squashed
system.switch_cpus3.lsq0.rescheduledLoads        57190                       # Number of loads that were rescheduled
system.switch_cpus3.lsq0.blockedByCache             0                       # Number of times an access to memory failed due to the cache being blocked
system.switch_cpus3.power_state.pwrStateResidencyTicks::OFF  31493016126                       # Cumulative time (in ticks) in various power states
system.switch_cpus3.rename.squashCycles        953094                       # Number of cycles rename is squashing
system.switch_cpus3.rename.idleCycles         8476707                       # Number of cycles rename is idle
system.switch_cpus3.rename.blockCycles        6284001                       # Number of cycles rename is blocking
system.switch_cpus3.rename.serializeStallCycles            0                       # count of cycles rename stalledfor serializing inst
system.switch_cpus3.rename.runCycles         70501276                       # Number of cycles rename is running
system.switch_cpus3.rename.unblockCycles      8261952                       # Number of cycles rename is unblocking
system.switch_cpus3.rename.renamedInsts     488207535                       # Number of instructions processed by rename
system.switch_cpus3.rename.ROBFullEvents        35332                       # Number of times rename has blocked due to ROB full
system.switch_cpus3.rename.IQFullEvents       2227586                       # Number of times rename has blocked due to IQ full
system.switch_cpus3.rename.LQFullEvents       1709583                       # Number of times rename has blocked due to LQ full
system.switch_cpus3.rename.SQFullEvents       2901555                       # Number of times rename has blocked due to SQ full
system.switch_cpus3.rename.renamedOperands    493993515                       # Number of destination operands rename has renamed
system.switch_cpus3.rename.lookups         1286059625                       # Number of register rename lookups that rename has made
system.switch_cpus3.rename.intLookups       682717656                       # Number of integer rename lookups
system.switch_cpus3.rename.fpLookups        149473413                       # Number of floating rename lookups
system.switch_cpus3.rename.committedMaps    430698978                       # Number of HB maps that are committed
system.switch_cpus3.rename.undoneMaps        63294475                       # Number of HB maps that are undone due to squashing
system.switch_cpus3.rename.serializing              0                       # count of serializing insts renamed
system.switch_cpus3.rename.tempSerializing            0                       # count of temporary serializing insts renamed
system.switch_cpus3.rename.skidInsts         21819175                       # count of insts added to the skid buffer
system.switch_cpus3.rob.reads               524602706                       # The number of ROB reads
system.switch_cpus3.rob.writes              959297426                       # The number of ROB writes
system.switch_cpus3.thread0.numInsts        236538993                       # Number of Instructions committed
system.switch_cpus3.thread0.numOps          426226622                       # Number of Ops committed
system.switch_cpus3.thread0.numMemRefs              0                       # Number of Memory References
system.voltage_domain.voltage                       1                       # Voltage in Volts

---------- End Simulation Statistics   ----------
