
---------- Begin Simulation Statistics ----------
final_tick                               13750531311393                       # Number of ticks from beginning of simulation (restored from checkpoints and never reset)
host_inst_rate                                 189143                       # Simulator instruction rate (inst/s)
host_mem_usage                               17161676                       # Number of bytes of host memory used
host_op_rate                                   309954                       # Simulator op (including micro ops) rate (op/s)
host_seconds                                  4149.58                       # Real time elapsed on the host
host_tick_rate                                7586017                       # Simulator tick rate (ticks/s)
sim_freq                                 1000000000000                       # Frequency of simulated ticks
sim_insts                                   784865480                       # Number of instructions simulated
sim_ops                                    1286178583                       # Number of ops (including micro ops) simulated
sim_seconds                                  0.031479                       # Number of seconds simulated
sim_ticks                                 31478773383                       # Number of ticks simulated
system.cpu0.committedInsts                         20                       # Number of instructions committed
system.cpu0.committedOps                           22                       # Number of ops (including micro ops) committed
system.cpu0.idle_fraction                           0                       # Percentage of idle cycles
system.cpu0.l2bus.snoop_filter.hit_multi_requests            0                       # Number of requests hitting in the snoop filter with multiple (>1) holders of the requested data.
system.cpu0.l2bus.snoop_filter.hit_multi_snoops            0                       # Number of snoops hitting in the snoop filter with multiple (>1) holders of the requested data.
system.cpu0.l2bus.snoop_filter.hit_single_requests      1107151                       # Number of requests hitting in the snoop filter with a single holder of the requested data.
system.cpu0.l2bus.snoop_filter.hit_single_snoops          247                       # Number of snoops hitting in the snoop filter with a single holder of the requested data.
system.cpu0.l2bus.snoop_filter.tot_requests      2213833                       # Total number of requests made to the snoop filter.
system.cpu0.l2bus.snoop_filter.tot_snoops          247                       # Total number of snoops made to the snoop filter.
system.cpu0.mmucache.mmubus.snoop_filter.hit_multi_requests            0                       # Number of requests hitting in the snoop filter with multiple (>1) holders of the requested data.
system.cpu0.mmucache.mmubus.snoop_filter.hit_multi_snoops            0                       # Number of snoops hitting in the snoop filter with multiple (>1) holders of the requested data.
system.cpu0.mmucache.mmubus.snoop_filter.hit_single_requests            0                       # Number of requests hitting in the snoop filter with a single holder of the requested data.
system.cpu0.mmucache.mmubus.snoop_filter.hit_single_snoops            0                       # Number of snoops hitting in the snoop filter with a single holder of the requested data.
system.cpu0.mmucache.mmubus.snoop_filter.tot_requests            0                       # Total number of requests made to the snoop filter.
system.cpu0.mmucache.mmubus.snoop_filter.tot_snoops            0                       # Total number of snoops made to the snoop filter.
system.cpu0.not_idle_fraction                       1                       # Percentage of non-idle cycles
system.cpu0.numCycles                              31                       # number of cpu cycles simulated
system.cpu0.numWorkItemsCompleted                   0                       # number of work items this cpu completed
system.cpu0.numWorkItemsStarted                     0                       # number of work items this cpu started
system.cpu0.num_busy_cycles                        31                       # Number of busy cycles
system.cpu0.num_cc_register_writes                  6                       # number of times the CC registers were written
system.cpu0.num_conditional_control_insts            0                       # number of instructions that are conditional controls
system.cpu0.num_fp_alu_accesses                    15                       # Number of float alu accesses
system.cpu0.num_fp_insts                           15                       # number of float instructions
system.cpu0.num_fp_register_reads                  23                       # number of times the floating registers were read
system.cpu0.num_fp_register_writes                 13                       # number of times the floating registers were written
system.cpu0.num_func_calls                          0                       # number of times a function call or return occured
system.cpu0.num_idle_cycles                         0                       # Number of idle cycles
system.cpu0.num_int_alu_accesses                   15                       # Number of integer alu accesses
system.cpu0.num_int_insts                          15                       # number of integer instructions
system.cpu0.num_int_register_reads                 39                       # number of times the integer registers were read
system.cpu0.num_int_register_writes                 7                       # number of times the integer registers were written
system.cpu0.num_load_insts                          7                       # Number of load instructions
system.cpu0.num_mem_refs                            9                       # number of memory refs
system.cpu0.num_store_insts                         2                       # Number of store instructions
system.cpu0.num_vec_alu_accesses                    0                       # Number of vector alu accesses
system.cpu0.num_vec_insts                           0                       # number of vector instructions
system.cpu0.num_vec_register_reads                  0                       # number of times the vector registers were read
system.cpu0.num_vec_register_writes                 0                       # number of times the vector registers were written
system.cpu0.op_class::No_OpClass                    0      0.00%      0.00% # Class of executed instruction
system.cpu0.op_class::IntAlu                        6     27.27%     27.27% # Class of executed instruction
system.cpu0.op_class::IntMult                       0      0.00%     27.27% # Class of executed instruction
system.cpu0.op_class::IntDiv                        0      0.00%     27.27% # Class of executed instruction
system.cpu0.op_class::FloatAdd                      0      0.00%     27.27% # Class of executed instruction
system.cpu0.op_class::FloatCmp                      0      0.00%     27.27% # Class of executed instruction
system.cpu0.op_class::FloatCvt                      0      0.00%     27.27% # Class of executed instruction
system.cpu0.op_class::FloatMult                     0      0.00%     27.27% # Class of executed instruction
system.cpu0.op_class::FloatMultAcc                  0      0.00%     27.27% # Class of executed instruction
system.cpu0.op_class::FloatDiv                      0      0.00%     27.27% # Class of executed instruction
system.cpu0.op_class::FloatMisc                     0      0.00%     27.27% # Class of executed instruction
system.cpu0.op_class::FloatSqrt                     0      0.00%     27.27% # Class of executed instruction
system.cpu0.op_class::SimdAdd                       0      0.00%     27.27% # Class of executed instruction
system.cpu0.op_class::SimdAddAcc                    0      0.00%     27.27% # Class of executed instruction
system.cpu0.op_class::SimdAlu                       0      0.00%     27.27% # Class of executed instruction
system.cpu0.op_class::SimdCmp                       0      0.00%     27.27% # Class of executed instruction
system.cpu0.op_class::SimdCvt                       0      0.00%     27.27% # Class of executed instruction
system.cpu0.op_class::SimdMisc                      0      0.00%     27.27% # Class of executed instruction
system.cpu0.op_class::SimdMult                      0      0.00%     27.27% # Class of executed instruction
system.cpu0.op_class::SimdMultAcc                   0      0.00%     27.27% # Class of executed instruction
system.cpu0.op_class::SimdShift                     0      0.00%     27.27% # Class of executed instruction
system.cpu0.op_class::SimdShiftAcc                  0      0.00%     27.27% # Class of executed instruction
system.cpu0.op_class::SimdDiv                       0      0.00%     27.27% # Class of executed instruction
system.cpu0.op_class::SimdSqrt                      0      0.00%     27.27% # Class of executed instruction
system.cpu0.op_class::SimdFloatAdd                  4     18.18%     45.45% # Class of executed instruction
system.cpu0.op_class::SimdFloatAlu                  0      0.00%     45.45% # Class of executed instruction
system.cpu0.op_class::SimdFloatCmp                  0      0.00%     45.45% # Class of executed instruction
system.cpu0.op_class::SimdFloatCvt                  0      0.00%     45.45% # Class of executed instruction
system.cpu0.op_class::SimdFloatDiv                  0      0.00%     45.45% # Class of executed instruction
system.cpu0.op_class::SimdFloatMisc                 0      0.00%     45.45% # Class of executed instruction
system.cpu0.op_class::SimdFloatMult                 3     13.64%     59.09% # Class of executed instruction
system.cpu0.op_class::SimdFloatMultAcc              0      0.00%     59.09% # Class of executed instruction
system.cpu0.op_class::SimdFloatSqrt                 0      0.00%     59.09% # Class of executed instruction
system.cpu0.op_class::SimdReduceAdd                 0      0.00%     59.09% # Class of executed instruction
system.cpu0.op_class::SimdReduceAlu                 0      0.00%     59.09% # Class of executed instruction
system.cpu0.op_class::SimdReduceCmp                 0      0.00%     59.09% # Class of executed instruction
system.cpu0.op_class::SimdFloatReduceAdd            0      0.00%     59.09% # Class of executed instruction
system.cpu0.op_class::SimdFloatReduceCmp            0      0.00%     59.09% # Class of executed instruction
system.cpu0.op_class::SimdAes                       0      0.00%     59.09% # Class of executed instruction
system.cpu0.op_class::SimdAesMix                    0      0.00%     59.09% # Class of executed instruction
system.cpu0.op_class::SimdSha1Hash                  0      0.00%     59.09% # Class of executed instruction
system.cpu0.op_class::SimdSha1Hash2                 0      0.00%     59.09% # Class of executed instruction
system.cpu0.op_class::SimdSha256Hash                0      0.00%     59.09% # Class of executed instruction
system.cpu0.op_class::SimdSha256Hash2               0      0.00%     59.09% # Class of executed instruction
system.cpu0.op_class::SimdShaSigma2                 0      0.00%     59.09% # Class of executed instruction
system.cpu0.op_class::SimdShaSigma3                 0      0.00%     59.09% # Class of executed instruction
system.cpu0.op_class::SimdPredAlu                   0      0.00%     59.09% # Class of executed instruction
system.cpu0.op_class::MemRead                       1      4.55%     63.64% # Class of executed instruction
system.cpu0.op_class::MemWrite                      0      0.00%     63.64% # Class of executed instruction
system.cpu0.op_class::FloatMemRead                  6     27.27%     90.91% # Class of executed instruction
system.cpu0.op_class::FloatMemWrite                 2      9.09%    100.00% # Class of executed instruction
system.cpu0.op_class::IprAccess                     0      0.00%    100.00% # Class of executed instruction
system.cpu0.op_class::InstPrefetch                  0      0.00%    100.00% # Class of executed instruction
system.cpu0.op_class::total                        22                       # Class of executed instruction
system.cpu0.workload.numSyscalls                    0                       # Number of system calls
system.cpu1.committedInsts                         19                       # Number of instructions committed
system.cpu1.committedOps                           21                       # Number of ops (including micro ops) committed
system.cpu1.idle_fraction                           0                       # Percentage of idle cycles
system.cpu1.l2bus.snoop_filter.hit_multi_requests            0                       # Number of requests hitting in the snoop filter with multiple (>1) holders of the requested data.
system.cpu1.l2bus.snoop_filter.hit_multi_snoops            0                       # Number of snoops hitting in the snoop filter with multiple (>1) holders of the requested data.
system.cpu1.l2bus.snoop_filter.hit_single_requests      2638927                       # Number of requests hitting in the snoop filter with a single holder of the requested data.
system.cpu1.l2bus.snoop_filter.hit_single_snoops          221                       # Number of snoops hitting in the snoop filter with a single holder of the requested data.
system.cpu1.l2bus.snoop_filter.tot_requests      5278433                       # Total number of requests made to the snoop filter.
system.cpu1.l2bus.snoop_filter.tot_snoops          221                       # Total number of snoops made to the snoop filter.
system.cpu1.mmucache.mmubus.snoop_filter.hit_multi_requests            0                       # Number of requests hitting in the snoop filter with multiple (>1) holders of the requested data.
system.cpu1.mmucache.mmubus.snoop_filter.hit_multi_snoops            0                       # Number of snoops hitting in the snoop filter with multiple (>1) holders of the requested data.
system.cpu1.mmucache.mmubus.snoop_filter.hit_single_requests            0                       # Number of requests hitting in the snoop filter with a single holder of the requested data.
system.cpu1.mmucache.mmubus.snoop_filter.hit_single_snoops            0                       # Number of snoops hitting in the snoop filter with a single holder of the requested data.
system.cpu1.mmucache.mmubus.snoop_filter.tot_requests            0                       # Total number of requests made to the snoop filter.
system.cpu1.mmucache.mmubus.snoop_filter.tot_snoops            0                       # Total number of snoops made to the snoop filter.
system.cpu1.not_idle_fraction                       1                       # Percentage of non-idle cycles
system.cpu1.numCycles                              31                       # number of cpu cycles simulated
system.cpu1.numWorkItemsCompleted                   0                       # number of work items this cpu completed
system.cpu1.numWorkItemsStarted                     0                       # number of work items this cpu started
system.cpu1.num_busy_cycles                        31                       # Number of busy cycles
system.cpu1.num_conditional_control_insts            0                       # number of instructions that are conditional controls
system.cpu1.num_fp_alu_accesses                    20                       # Number of float alu accesses
system.cpu1.num_fp_insts                           20                       # number of float instructions
system.cpu1.num_fp_register_reads                  54                       # number of times the floating registers were read
system.cpu1.num_fp_register_writes                 20                       # number of times the floating registers were written
system.cpu1.num_func_calls                          0                       # number of times a function call or return occured
system.cpu1.num_idle_cycles                         0                       # Number of idle cycles
system.cpu1.num_int_alu_accesses                    2                       # Number of integer alu accesses
system.cpu1.num_int_insts                           2                       # number of integer instructions
system.cpu1.num_int_register_reads                  4                       # number of times the integer registers were read
system.cpu1.num_int_register_writes                 1                       # number of times the integer registers were written
system.cpu1.num_load_insts                          1                       # Number of load instructions
system.cpu1.num_mem_refs                            1                       # number of memory refs
system.cpu1.num_store_insts                         0                       # Number of store instructions
system.cpu1.num_vec_alu_accesses                    0                       # Number of vector alu accesses
system.cpu1.num_vec_insts                           0                       # number of vector instructions
system.cpu1.num_vec_register_reads                  0                       # number of times the vector registers were read
system.cpu1.num_vec_register_writes                 0                       # number of times the vector registers were written
system.cpu1.op_class::No_OpClass                    0      0.00%      0.00% # Class of executed instruction
system.cpu1.op_class::IntAlu                        4     19.05%     19.05% # Class of executed instruction
system.cpu1.op_class::IntMult                       0      0.00%     19.05% # Class of executed instruction
system.cpu1.op_class::IntDiv                        0      0.00%     19.05% # Class of executed instruction
system.cpu1.op_class::FloatAdd                      0      0.00%     19.05% # Class of executed instruction
system.cpu1.op_class::FloatCmp                      0      0.00%     19.05% # Class of executed instruction
system.cpu1.op_class::FloatCvt                      0      0.00%     19.05% # Class of executed instruction
system.cpu1.op_class::FloatMult                     0      0.00%     19.05% # Class of executed instruction
system.cpu1.op_class::FloatMultAcc                  0      0.00%     19.05% # Class of executed instruction
system.cpu1.op_class::FloatDiv                      0      0.00%     19.05% # Class of executed instruction
system.cpu1.op_class::FloatMisc                     0      0.00%     19.05% # Class of executed instruction
system.cpu1.op_class::FloatSqrt                     0      0.00%     19.05% # Class of executed instruction
system.cpu1.op_class::SimdAdd                       0      0.00%     19.05% # Class of executed instruction
system.cpu1.op_class::SimdAddAcc                    0      0.00%     19.05% # Class of executed instruction
system.cpu1.op_class::SimdAlu                       0      0.00%     19.05% # Class of executed instruction
system.cpu1.op_class::SimdCmp                       0      0.00%     19.05% # Class of executed instruction
system.cpu1.op_class::SimdCvt                       0      0.00%     19.05% # Class of executed instruction
system.cpu1.op_class::SimdMisc                      0      0.00%     19.05% # Class of executed instruction
system.cpu1.op_class::SimdMult                      0      0.00%     19.05% # Class of executed instruction
system.cpu1.op_class::SimdMultAcc                   0      0.00%     19.05% # Class of executed instruction
system.cpu1.op_class::SimdShift                     0      0.00%     19.05% # Class of executed instruction
system.cpu1.op_class::SimdShiftAcc                  0      0.00%     19.05% # Class of executed instruction
system.cpu1.op_class::SimdDiv                       0      0.00%     19.05% # Class of executed instruction
system.cpu1.op_class::SimdSqrt                      0      0.00%     19.05% # Class of executed instruction
system.cpu1.op_class::SimdFloatAdd                  7     33.33%     52.38% # Class of executed instruction
system.cpu1.op_class::SimdFloatAlu                  0      0.00%     52.38% # Class of executed instruction
system.cpu1.op_class::SimdFloatCmp                  0      0.00%     52.38% # Class of executed instruction
system.cpu1.op_class::SimdFloatCvt                  0      0.00%     52.38% # Class of executed instruction
system.cpu1.op_class::SimdFloatDiv                  0      0.00%     52.38% # Class of executed instruction
system.cpu1.op_class::SimdFloatMisc                 0      0.00%     52.38% # Class of executed instruction
system.cpu1.op_class::SimdFloatMult                 9     42.86%     95.24% # Class of executed instruction
system.cpu1.op_class::SimdFloatMultAcc              0      0.00%     95.24% # Class of executed instruction
system.cpu1.op_class::SimdFloatSqrt                 0      0.00%     95.24% # Class of executed instruction
system.cpu1.op_class::SimdReduceAdd                 0      0.00%     95.24% # Class of executed instruction
system.cpu1.op_class::SimdReduceAlu                 0      0.00%     95.24% # Class of executed instruction
system.cpu1.op_class::SimdReduceCmp                 0      0.00%     95.24% # Class of executed instruction
system.cpu1.op_class::SimdFloatReduceAdd            0      0.00%     95.24% # Class of executed instruction
system.cpu1.op_class::SimdFloatReduceCmp            0      0.00%     95.24% # Class of executed instruction
system.cpu1.op_class::SimdAes                       0      0.00%     95.24% # Class of executed instruction
system.cpu1.op_class::SimdAesMix                    0      0.00%     95.24% # Class of executed instruction
system.cpu1.op_class::SimdSha1Hash                  0      0.00%     95.24% # Class of executed instruction
system.cpu1.op_class::SimdSha1Hash2                 0      0.00%     95.24% # Class of executed instruction
system.cpu1.op_class::SimdSha256Hash                0      0.00%     95.24% # Class of executed instruction
system.cpu1.op_class::SimdSha256Hash2               0      0.00%     95.24% # Class of executed instruction
system.cpu1.op_class::SimdShaSigma2                 0      0.00%     95.24% # Class of executed instruction
system.cpu1.op_class::SimdShaSigma3                 0      0.00%     95.24% # Class of executed instruction
system.cpu1.op_class::SimdPredAlu                   0      0.00%     95.24% # Class of executed instruction
system.cpu1.op_class::MemRead                       0      0.00%     95.24% # Class of executed instruction
system.cpu1.op_class::MemWrite                      0      0.00%     95.24% # Class of executed instruction
system.cpu1.op_class::FloatMemRead                  1      4.76%    100.00% # Class of executed instruction
system.cpu1.op_class::FloatMemWrite                 0      0.00%    100.00% # Class of executed instruction
system.cpu1.op_class::IprAccess                     0      0.00%    100.00% # Class of executed instruction
system.cpu1.op_class::InstPrefetch                  0      0.00%    100.00% # Class of executed instruction
system.cpu1.op_class::total                        21                       # Class of executed instruction
system.cpu1.workload.numSyscalls                    0                       # Number of system calls
system.cpu2.Branches                                2                       # Number of branches fetched
system.cpu2.committedInsts                         14                       # Number of instructions committed
system.cpu2.committedOps                           24                       # Number of ops (including micro ops) committed
system.cpu2.idle_fraction                           0                       # Percentage of idle cycles
system.cpu2.l2bus.snoop_filter.hit_multi_requests            3                       # Number of requests hitting in the snoop filter with multiple (>1) holders of the requested data.
system.cpu2.l2bus.snoop_filter.hit_multi_snoops            0                       # Number of snoops hitting in the snoop filter with multiple (>1) holders of the requested data.
system.cpu2.l2bus.snoop_filter.hit_single_requests      2529397                       # Number of requests hitting in the snoop filter with a single holder of the requested data.
system.cpu2.l2bus.snoop_filter.hit_single_snoops          215                       # Number of snoops hitting in the snoop filter with a single holder of the requested data.
system.cpu2.l2bus.snoop_filter.tot_requests      5059499                       # Total number of requests made to the snoop filter.
system.cpu2.l2bus.snoop_filter.tot_snoops          215                       # Total number of snoops made to the snoop filter.
system.cpu2.mmucache.mmubus.snoop_filter.hit_multi_requests            0                       # Number of requests hitting in the snoop filter with multiple (>1) holders of the requested data.
system.cpu2.mmucache.mmubus.snoop_filter.hit_multi_snoops            0                       # Number of snoops hitting in the snoop filter with multiple (>1) holders of the requested data.
system.cpu2.mmucache.mmubus.snoop_filter.hit_single_requests            0                       # Number of requests hitting in the snoop filter with a single holder of the requested data.
system.cpu2.mmucache.mmubus.snoop_filter.hit_single_snoops            0                       # Number of snoops hitting in the snoop filter with a single holder of the requested data.
system.cpu2.mmucache.mmubus.snoop_filter.tot_requests            0                       # Total number of requests made to the snoop filter.
system.cpu2.mmucache.mmubus.snoop_filter.tot_snoops            0                       # Total number of snoops made to the snoop filter.
system.cpu2.not_idle_fraction                       1                       # Percentage of non-idle cycles
system.cpu2.numCycles                              30                       # number of cpu cycles simulated
system.cpu2.numWorkItemsCompleted                   0                       # number of work items this cpu completed
system.cpu2.numWorkItemsStarted                     0                       # number of work items this cpu started
system.cpu2.num_busy_cycles                        30                       # Number of busy cycles
system.cpu2.num_cc_register_reads                  12                       # number of times the CC registers were read
system.cpu2.num_cc_register_writes                  6                       # number of times the CC registers were written
system.cpu2.num_conditional_control_insts            2                       # number of instructions that are conditional controls
system.cpu2.num_fp_alu_accesses                     9                       # Number of float alu accesses
system.cpu2.num_fp_insts                            9                       # number of float instructions
system.cpu2.num_fp_register_reads                  17                       # number of times the floating registers were read
system.cpu2.num_fp_register_writes                  8                       # number of times the floating registers were written
system.cpu2.num_func_calls                          0                       # number of times a function call or return occured
system.cpu2.num_idle_cycles                         0                       # Number of idle cycles
system.cpu2.num_int_alu_accesses                   18                       # Number of integer alu accesses
system.cpu2.num_int_insts                          18                       # number of integer instructions
system.cpu2.num_int_register_reads                 32                       # number of times the integer registers were read
system.cpu2.num_int_register_writes                13                       # number of times the integer registers were written
system.cpu2.num_load_insts                          4                       # Number of load instructions
system.cpu2.num_mem_refs                            4                       # number of memory refs
system.cpu2.num_store_insts                         0                       # Number of store instructions
system.cpu2.num_vec_alu_accesses                    0                       # Number of vector alu accesses
system.cpu2.num_vec_insts                           0                       # number of vector instructions
system.cpu2.num_vec_register_reads                  0                       # number of times the vector registers were read
system.cpu2.num_vec_register_writes                 0                       # number of times the vector registers were written
system.cpu2.op_class::No_OpClass                    0      0.00%      0.00% # Class of executed instruction
system.cpu2.op_class::IntAlu                       12     50.00%     50.00% # Class of executed instruction
system.cpu2.op_class::IntMult                       0      0.00%     50.00% # Class of executed instruction
system.cpu2.op_class::IntDiv                        0      0.00%     50.00% # Class of executed instruction
system.cpu2.op_class::FloatAdd                      0      0.00%     50.00% # Class of executed instruction
system.cpu2.op_class::FloatCmp                      0      0.00%     50.00% # Class of executed instruction
system.cpu2.op_class::FloatCvt                      0      0.00%     50.00% # Class of executed instruction
system.cpu2.op_class::FloatMult                     0      0.00%     50.00% # Class of executed instruction
system.cpu2.op_class::FloatMultAcc                  0      0.00%     50.00% # Class of executed instruction
system.cpu2.op_class::FloatDiv                      0      0.00%     50.00% # Class of executed instruction
system.cpu2.op_class::FloatMisc                     0      0.00%     50.00% # Class of executed instruction
system.cpu2.op_class::FloatSqrt                     0      0.00%     50.00% # Class of executed instruction
system.cpu2.op_class::SimdAdd                       0      0.00%     50.00% # Class of executed instruction
system.cpu2.op_class::SimdAddAcc                    0      0.00%     50.00% # Class of executed instruction
system.cpu2.op_class::SimdAlu                       0      0.00%     50.00% # Class of executed instruction
system.cpu2.op_class::SimdCmp                       0      0.00%     50.00% # Class of executed instruction
system.cpu2.op_class::SimdCvt                       0      0.00%     50.00% # Class of executed instruction
system.cpu2.op_class::SimdMisc                      2      8.33%     58.33% # Class of executed instruction
system.cpu2.op_class::SimdMult                      0      0.00%     58.33% # Class of executed instruction
system.cpu2.op_class::SimdMultAcc                   0      0.00%     58.33% # Class of executed instruction
system.cpu2.op_class::SimdShift                     0      0.00%     58.33% # Class of executed instruction
system.cpu2.op_class::SimdShiftAcc                  0      0.00%     58.33% # Class of executed instruction
system.cpu2.op_class::SimdDiv                       0      0.00%     58.33% # Class of executed instruction
system.cpu2.op_class::SimdSqrt                      0      0.00%     58.33% # Class of executed instruction
system.cpu2.op_class::SimdFloatAdd                  1      4.17%     62.50% # Class of executed instruction
system.cpu2.op_class::SimdFloatAlu                  0      0.00%     62.50% # Class of executed instruction
system.cpu2.op_class::SimdFloatCmp                  0      0.00%     62.50% # Class of executed instruction
system.cpu2.op_class::SimdFloatCvt                  3     12.50%     75.00% # Class of executed instruction
system.cpu2.op_class::SimdFloatDiv                  0      0.00%     75.00% # Class of executed instruction
system.cpu2.op_class::SimdFloatMisc                 0      0.00%     75.00% # Class of executed instruction
system.cpu2.op_class::SimdFloatMult                 2      8.33%     83.33% # Class of executed instruction
system.cpu2.op_class::SimdFloatMultAcc              0      0.00%     83.33% # Class of executed instruction
system.cpu2.op_class::SimdFloatSqrt                 0      0.00%     83.33% # Class of executed instruction
system.cpu2.op_class::SimdReduceAdd                 0      0.00%     83.33% # Class of executed instruction
system.cpu2.op_class::SimdReduceAlu                 0      0.00%     83.33% # Class of executed instruction
system.cpu2.op_class::SimdReduceCmp                 0      0.00%     83.33% # Class of executed instruction
system.cpu2.op_class::SimdFloatReduceAdd            0      0.00%     83.33% # Class of executed instruction
system.cpu2.op_class::SimdFloatReduceCmp            0      0.00%     83.33% # Class of executed instruction
system.cpu2.op_class::SimdAes                       0      0.00%     83.33% # Class of executed instruction
system.cpu2.op_class::SimdAesMix                    0      0.00%     83.33% # Class of executed instruction
system.cpu2.op_class::SimdSha1Hash                  0      0.00%     83.33% # Class of executed instruction
system.cpu2.op_class::SimdSha1Hash2                 0      0.00%     83.33% # Class of executed instruction
system.cpu2.op_class::SimdSha256Hash                0      0.00%     83.33% # Class of executed instruction
system.cpu2.op_class::SimdSha256Hash2               0      0.00%     83.33% # Class of executed instruction
system.cpu2.op_class::SimdShaSigma2                 0      0.00%     83.33% # Class of executed instruction
system.cpu2.op_class::SimdShaSigma3                 0      0.00%     83.33% # Class of executed instruction
system.cpu2.op_class::SimdPredAlu                   0      0.00%     83.33% # Class of executed instruction
system.cpu2.op_class::MemRead                       3     12.50%     95.83% # Class of executed instruction
system.cpu2.op_class::MemWrite                      0      0.00%     95.83% # Class of executed instruction
system.cpu2.op_class::FloatMemRead                  1      4.17%    100.00% # Class of executed instruction
system.cpu2.op_class::FloatMemWrite                 0      0.00%    100.00% # Class of executed instruction
system.cpu2.op_class::IprAccess                     0      0.00%    100.00% # Class of executed instruction
system.cpu2.op_class::InstPrefetch                  0      0.00%    100.00% # Class of executed instruction
system.cpu2.op_class::total                        24                       # Class of executed instruction
system.cpu2.workload.numSyscalls                    0                       # Number of system calls
system.cpu3.Branches                                2                       # Number of branches fetched
system.cpu3.committedInsts                         15                       # Number of instructions committed
system.cpu3.committedOps                           28                       # Number of ops (including micro ops) committed
system.cpu3.idle_fraction                           0                       # Percentage of idle cycles
system.cpu3.l2bus.snoop_filter.hit_multi_requests         5163                       # Number of requests hitting in the snoop filter with multiple (>1) holders of the requested data.
system.cpu3.l2bus.snoop_filter.hit_multi_snoops            0                       # Number of snoops hitting in the snoop filter with multiple (>1) holders of the requested data.
system.cpu3.l2bus.snoop_filter.hit_single_requests      1639396                       # Number of requests hitting in the snoop filter with a single holder of the requested data.
system.cpu3.l2bus.snoop_filter.hit_single_snoops            0                       # Number of snoops hitting in the snoop filter with a single holder of the requested data.
system.cpu3.l2bus.snoop_filter.tot_requests      3279746                       # Total number of requests made to the snoop filter.
system.cpu3.l2bus.snoop_filter.tot_snoops            0                       # Total number of snoops made to the snoop filter.
system.cpu3.mmucache.mmubus.snoop_filter.hit_multi_requests            0                       # Number of requests hitting in the snoop filter with multiple (>1) holders of the requested data.
system.cpu3.mmucache.mmubus.snoop_filter.hit_multi_snoops            0                       # Number of snoops hitting in the snoop filter with multiple (>1) holders of the requested data.
system.cpu3.mmucache.mmubus.snoop_filter.hit_single_requests            0                       # Number of requests hitting in the snoop filter with a single holder of the requested data.
system.cpu3.mmucache.mmubus.snoop_filter.hit_single_snoops            0                       # Number of snoops hitting in the snoop filter with a single holder of the requested data.
system.cpu3.mmucache.mmubus.snoop_filter.tot_requests            0                       # Total number of requests made to the snoop filter.
system.cpu3.mmucache.mmubus.snoop_filter.tot_snoops            0                       # Total number of snoops made to the snoop filter.
system.cpu3.not_idle_fraction                       1                       # Percentage of non-idle cycles
system.cpu3.numCycles                              31                       # number of cpu cycles simulated
system.cpu3.numWorkItemsCompleted                   0                       # number of work items this cpu completed
system.cpu3.numWorkItemsStarted                     0                       # number of work items this cpu started
system.cpu3.num_busy_cycles                        31                       # Number of busy cycles
system.cpu3.num_cc_register_reads                   6                       # number of times the CC registers were read
system.cpu3.num_cc_register_writes                  4                       # number of times the CC registers were written
system.cpu3.num_conditional_control_insts            1                       # number of instructions that are conditional controls
system.cpu3.num_fp_alu_accesses                     0                       # Number of float alu accesses
system.cpu3.num_fp_insts                            0                       # number of float instructions
system.cpu3.num_fp_register_reads                   0                       # number of times the floating registers were read
system.cpu3.num_fp_register_writes                  0                       # number of times the floating registers were written
system.cpu3.num_func_calls                          1                       # number of times a function call or return occured
system.cpu3.num_idle_cycles                         0                       # Number of idle cycles
system.cpu3.num_int_alu_accesses                   28                       # Number of integer alu accesses
system.cpu3.num_int_insts                          28                       # number of integer instructions
system.cpu3.num_int_register_reads                 65                       # number of times the integer registers were read
system.cpu3.num_int_register_writes                21                       # number of times the integer registers were written
system.cpu3.num_load_insts                          4                       # Number of load instructions
system.cpu3.num_mem_refs                            9                       # number of memory refs
system.cpu3.num_store_insts                         5                       # Number of store instructions
system.cpu3.num_vec_alu_accesses                    0                       # Number of vector alu accesses
system.cpu3.num_vec_insts                           0                       # number of vector instructions
system.cpu3.num_vec_register_reads                  0                       # number of times the vector registers were read
system.cpu3.num_vec_register_writes                 0                       # number of times the vector registers were written
system.cpu3.op_class::No_OpClass                    0      0.00%      0.00% # Class of executed instruction
system.cpu3.op_class::IntAlu                       19     67.86%     67.86% # Class of executed instruction
system.cpu3.op_class::IntMult                       0      0.00%     67.86% # Class of executed instruction
system.cpu3.op_class::IntDiv                        0      0.00%     67.86% # Class of executed instruction
system.cpu3.op_class::FloatAdd                      0      0.00%     67.86% # Class of executed instruction
system.cpu3.op_class::FloatCmp                      0      0.00%     67.86% # Class of executed instruction
system.cpu3.op_class::FloatCvt                      0      0.00%     67.86% # Class of executed instruction
system.cpu3.op_class::FloatMult                     0      0.00%     67.86% # Class of executed instruction
system.cpu3.op_class::FloatMultAcc                  0      0.00%     67.86% # Class of executed instruction
system.cpu3.op_class::FloatDiv                      0      0.00%     67.86% # Class of executed instruction
system.cpu3.op_class::FloatMisc                     0      0.00%     67.86% # Class of executed instruction
system.cpu3.op_class::FloatSqrt                     0      0.00%     67.86% # Class of executed instruction
system.cpu3.op_class::SimdAdd                       0      0.00%     67.86% # Class of executed instruction
system.cpu3.op_class::SimdAddAcc                    0      0.00%     67.86% # Class of executed instruction
system.cpu3.op_class::SimdAlu                       0      0.00%     67.86% # Class of executed instruction
system.cpu3.op_class::SimdCmp                       0      0.00%     67.86% # Class of executed instruction
system.cpu3.op_class::SimdCvt                       0      0.00%     67.86% # Class of executed instruction
system.cpu3.op_class::SimdMisc                      0      0.00%     67.86% # Class of executed instruction
system.cpu3.op_class::SimdMult                      0      0.00%     67.86% # Class of executed instruction
system.cpu3.op_class::SimdMultAcc                   0      0.00%     67.86% # Class of executed instruction
system.cpu3.op_class::SimdShift                     0      0.00%     67.86% # Class of executed instruction
system.cpu3.op_class::SimdShiftAcc                  0      0.00%     67.86% # Class of executed instruction
system.cpu3.op_class::SimdDiv                       0      0.00%     67.86% # Class of executed instruction
system.cpu3.op_class::SimdSqrt                      0      0.00%     67.86% # Class of executed instruction
system.cpu3.op_class::SimdFloatAdd                  0      0.00%     67.86% # Class of executed instruction
system.cpu3.op_class::SimdFloatAlu                  0      0.00%     67.86% # Class of executed instruction
system.cpu3.op_class::SimdFloatCmp                  0      0.00%     67.86% # Class of executed instruction
system.cpu3.op_class::SimdFloatCvt                  0      0.00%     67.86% # Class of executed instruction
system.cpu3.op_class::SimdFloatDiv                  0      0.00%     67.86% # Class of executed instruction
system.cpu3.op_class::SimdFloatMisc                 0      0.00%     67.86% # Class of executed instruction
system.cpu3.op_class::SimdFloatMult                 0      0.00%     67.86% # Class of executed instruction
system.cpu3.op_class::SimdFloatMultAcc              0      0.00%     67.86% # Class of executed instruction
system.cpu3.op_class::SimdFloatSqrt                 0      0.00%     67.86% # Class of executed instruction
system.cpu3.op_class::SimdReduceAdd                 0      0.00%     67.86% # Class of executed instruction
system.cpu3.op_class::SimdReduceAlu                 0      0.00%     67.86% # Class of executed instruction
system.cpu3.op_class::SimdReduceCmp                 0      0.00%     67.86% # Class of executed instruction
system.cpu3.op_class::SimdFloatReduceAdd            0      0.00%     67.86% # Class of executed instruction
system.cpu3.op_class::SimdFloatReduceCmp            0      0.00%     67.86% # Class of executed instruction
system.cpu3.op_class::SimdAes                       0      0.00%     67.86% # Class of executed instruction
system.cpu3.op_class::SimdAesMix                    0      0.00%     67.86% # Class of executed instruction
system.cpu3.op_class::SimdSha1Hash                  0      0.00%     67.86% # Class of executed instruction
system.cpu3.op_class::SimdSha1Hash2                 0      0.00%     67.86% # Class of executed instruction
system.cpu3.op_class::SimdSha256Hash                0      0.00%     67.86% # Class of executed instruction
system.cpu3.op_class::SimdSha256Hash2               0      0.00%     67.86% # Class of executed instruction
system.cpu3.op_class::SimdShaSigma2                 0      0.00%     67.86% # Class of executed instruction
system.cpu3.op_class::SimdShaSigma3                 0      0.00%     67.86% # Class of executed instruction
system.cpu3.op_class::SimdPredAlu                   0      0.00%     67.86% # Class of executed instruction
system.cpu3.op_class::MemRead                       4     14.29%     82.14% # Class of executed instruction
system.cpu3.op_class::MemWrite                      5     17.86%    100.00% # Class of executed instruction
system.cpu3.op_class::FloatMemRead                  0      0.00%    100.00% # Class of executed instruction
system.cpu3.op_class::FloatMemWrite                 0      0.00%    100.00% # Class of executed instruction
system.cpu3.op_class::IprAccess                     0      0.00%    100.00% # Class of executed instruction
system.cpu3.op_class::InstPrefetch                  0      0.00%    100.00% # Class of executed instruction
system.cpu3.op_class::total                        28                       # Class of executed instruction
system.cpu3.workload.numSyscalls                    0                       # Number of system calls
system.l3bus.snoop_filter.hit_multi_requests            0                       # Number of requests hitting in the snoop filter with multiple (>1) holders of the requested data.
system.l3bus.snoop_filter.hit_multi_snoops            0                       # Number of snoops hitting in the snoop filter with multiple (>1) holders of the requested data.
system.l3bus.snoop_filter.hit_single_requests      1695700                       # Number of requests hitting in the snoop filter with a single holder of the requested data.
system.l3bus.snoop_filter.hit_single_snoops            0                       # Number of snoops hitting in the snoop filter with a single holder of the requested data.
system.l3bus.snoop_filter.tot_requests        3428650                       # Total number of requests made to the snoop filter.
system.l3bus.snoop_filter.tot_snoops                0                       # Total number of snoops made to the snoop filter.
system.membus.snoop_filter.hit_multi_requests            0                       # Number of requests hitting in the snoop filter with multiple (>1) holders of the requested data.
system.membus.snoop_filter.hit_multi_snoops            0                       # Number of snoops hitting in the snoop filter with multiple (>1) holders of the requested data.
system.membus.snoop_filter.hit_single_requests      1614791                       # Number of requests hitting in the snoop filter with a single holder of the requested data.
system.membus.snoop_filter.hit_single_snoops            0                       # Number of snoops hitting in the snoop filter with a single holder of the requested data.
system.membus.snoop_filter.tot_requests       3309252                       # Total number of requests made to the snoop filter.
system.membus.snoop_filter.tot_snoops               0                       # Total number of snoops made to the snoop filter.
system.switch_cpus0.cc_regfile_reads         95189468                       # number of cc regfile reads
system.switch_cpus0.cc_regfile_writes        66879435                       # number of cc regfile writes
system.switch_cpus0.committedInsts          223773707                       # Number of Instructions Simulated
system.switch_cpus0.committedOps            354938614                       # Number of Ops (including micro ops) Simulated
system.switch_cpus0.cpi                      0.422439                       # CPI: Cycles Per Instruction
system.switch_cpus0.cpi_total                0.422439                       # CPI: Total CPI of All Threads
system.switch_cpus0.fp_regfile_reads        263601789                       # number of floating regfile reads
system.switch_cpus0.fp_regfile_writes       144518066                       # number of floating regfile writes
system.switch_cpus0.idleCycles                  49906                       # Total number of cycles that the CPU has spent unscheduled due to idling
system.switch_cpus0.iew.branchMispredicts         5620                       # Number of branch mispredicts detected at execute
system.switch_cpus0.iew.exec_branches        22466984                       # Number of branches executed
system.switch_cpus0.iew.exec_nop                    0                       # number of nop insts executed
system.switch_cpus0.iew.exec_rate            3.755982                       # Inst execution rate
system.switch_cpus0.iew.exec_refs            99229428                       # number of memory reference insts executed
system.switch_cpus0.iew.exec_stores          24822737                       # Number of stores executed
system.switch_cpus0.iew.exec_swp                    0                       # number of swp insts executed
system.switch_cpus0.iew.iewBlockCycles       23519101                       # Number of cycles IEW is blocking
system.switch_cpus0.iew.iewDispLoadInsts     74421663                       # Number of dispatched load instructions
system.switch_cpus0.iew.iewDispNonSpecInsts            0                       # Number of dispatched non-speculative instructions
system.switch_cpus0.iew.iewDispSquashedInsts         2575                       # Number of squashed instructions skipped by dispatch
system.switch_cpus0.iew.iewDispStoreInsts     24831261                       # Number of dispatched store instructions
system.switch_cpus0.iew.iewDispatchedInsts    355132431                       # Number of instructions dispatched to IQ
system.switch_cpus0.iew.iewExecLoadInsts     74406691                       # Number of load instructions executed
system.switch_cpus0.iew.iewExecSquashedInsts        16173                       # Number of squashed instructions skipped in execute
system.switch_cpus0.iew.iewExecutedInsts    355056087                       # Number of executed instructions
system.switch_cpus0.iew.iewIQFullEvents         46459                       # Number of times the IQ has become full, causing a stall
system.switch_cpus0.iew.iewIdleCycles               0                       # Number of cycles IEW is idle
system.switch_cpus0.iew.iewLSQFullEvents       175640                       # Number of times the LSQ has become full, causing a stall
system.switch_cpus0.iew.iewSquashCycles          6666                       # Number of cycles IEW is squashing
system.switch_cpus0.iew.iewUnblockCycles       255239                       # Number of cycles IEW is unblocking
system.switch_cpus0.iew.memOrderViolationEvents         1788                       # Number of memory order violations
system.switch_cpus0.iew.predictedNotTakenIncorrect         2558                       # Number of branches that were predicted not taken incorrectly
system.switch_cpus0.iew.predictedTakenIncorrect         3062                       # Number of branches that were predicted taken incorrectly
system.switch_cpus0.iew.wb_consumers        471242366                       # num instructions consuming a value
system.switch_cpus0.iew.wb_count            355046259                       # cumulative count of insts written-back
system.switch_cpus0.iew.wb_fanout            0.585802                       # average fanout of values written-back
system.switch_cpus0.iew.wb_producers        276054583                       # num instructions producing a value
system.switch_cpus0.iew.wb_rate              3.755878                       # insts written-back per cycle
system.switch_cpus0.iew.wb_sent             355050356                       # cumulative count of insts sent to commit
system.switch_cpus0.int_regfile_reads       368897070                       # number of integer regfile reads
system.switch_cpus0.int_regfile_writes      159706564                       # number of integer regfile writes
system.switch_cpus0.ipc                      2.367204                       # IPC: Instructions Per Cycle
system.switch_cpus0.ipc_total                2.367204                       # IPC: Total IPC of All Threads
system.switch_cpus0.iq.FU_type_0::No_OpClass         4115      0.00%      0.00% # Type of FU issued
system.switch_cpus0.iq.FU_type_0::IntAlu    173257428     48.79%     48.80% # Type of FU issued
system.switch_cpus0.iq.FU_type_0::IntMult       597831      0.17%     48.96% # Type of FU issued
system.switch_cpus0.iq.FU_type_0::IntDiv            0      0.00%     48.96% # Type of FU issued
system.switch_cpus0.iq.FU_type_0::FloatAdd      8855939      2.49%     51.46% # Type of FU issued
system.switch_cpus0.iq.FU_type_0::FloatCmp            0      0.00%     51.46% # Type of FU issued
system.switch_cpus0.iq.FU_type_0::FloatCvt            0      0.00%     51.46% # Type of FU issued
system.switch_cpus0.iq.FU_type_0::FloatMult            0      0.00%     51.46% # Type of FU issued
system.switch_cpus0.iq.FU_type_0::FloatMultAcc            0      0.00%     51.46% # Type of FU issued
system.switch_cpus0.iq.FU_type_0::FloatDiv            0      0.00%     51.46% # Type of FU issued
system.switch_cpus0.iq.FU_type_0::FloatMisc            0      0.00%     51.46% # Type of FU issued
system.switch_cpus0.iq.FU_type_0::FloatSqrt            0      0.00%     51.46% # Type of FU issued
system.switch_cpus0.iq.FU_type_0::SimdAdd            0      0.00%     51.46% # Type of FU issued
system.switch_cpus0.iq.FU_type_0::SimdAddAcc            0      0.00%     51.46% # Type of FU issued
system.switch_cpus0.iq.FU_type_0::SimdAlu      5905506      1.66%     53.12% # Type of FU issued
system.switch_cpus0.iq.FU_type_0::SimdCmp            0      0.00%     53.12% # Type of FU issued
system.switch_cpus0.iq.FU_type_0::SimdCvt            0      0.00%     53.12% # Type of FU issued
system.switch_cpus0.iq.FU_type_0::SimdMisc      4133804      1.16%     54.29% # Type of FU issued
system.switch_cpus0.iq.FU_type_0::SimdMult            0      0.00%     54.29% # Type of FU issued
system.switch_cpus0.iq.FU_type_0::SimdMultAcc            0      0.00%     54.29% # Type of FU issued
system.switch_cpus0.iq.FU_type_0::SimdShift            0      0.00%     54.29% # Type of FU issued
system.switch_cpus0.iq.FU_type_0::SimdShiftAcc            0      0.00%     54.29% # Type of FU issued
system.switch_cpus0.iq.FU_type_0::SimdDiv            0      0.00%     54.29% # Type of FU issued
system.switch_cpus0.iq.FU_type_0::SimdSqrt            0      0.00%     54.29% # Type of FU issued
system.switch_cpus0.iq.FU_type_0::SimdFloatAdd     24766472      6.98%     61.26% # Type of FU issued
system.switch_cpus0.iq.FU_type_0::SimdFloatAlu            0      0.00%     61.26% # Type of FU issued
system.switch_cpus0.iq.FU_type_0::SimdFloatCmp            0      0.00%     61.26% # Type of FU issued
system.switch_cpus0.iq.FU_type_0::SimdFloatCvt      4130328      1.16%     62.42% # Type of FU issued
system.switch_cpus0.iq.FU_type_0::SimdFloatDiv      2948116      0.83%     63.25% # Type of FU issued
system.switch_cpus0.iq.FU_type_0::SimdFloatMisc            0      0.00%     63.25% # Type of FU issued
system.switch_cpus0.iq.FU_type_0::SimdFloatMult     30057954      8.47%     71.72% # Type of FU issued
system.switch_cpus0.iq.FU_type_0::SimdFloatMultAcc            0      0.00%     71.72% # Type of FU issued
system.switch_cpus0.iq.FU_type_0::SimdFloatSqrt      1177506      0.33%     72.05% # Type of FU issued
system.switch_cpus0.iq.FU_type_0::SimdReduceAdd            0      0.00%     72.05% # Type of FU issued
system.switch_cpus0.iq.FU_type_0::SimdReduceAlu            0      0.00%     72.05% # Type of FU issued
system.switch_cpus0.iq.FU_type_0::SimdReduceCmp            0      0.00%     72.05% # Type of FU issued
system.switch_cpus0.iq.FU_type_0::SimdFloatReduceAdd            0      0.00%     72.05% # Type of FU issued
system.switch_cpus0.iq.FU_type_0::SimdFloatReduceCmp            0      0.00%     72.05% # Type of FU issued
system.switch_cpus0.iq.FU_type_0::SimdAes            0      0.00%     72.05% # Type of FU issued
system.switch_cpus0.iq.FU_type_0::SimdAesMix            0      0.00%     72.05% # Type of FU issued
system.switch_cpus0.iq.FU_type_0::SimdSha1Hash            0      0.00%     72.05% # Type of FU issued
system.switch_cpus0.iq.FU_type_0::SimdSha1Hash2            0      0.00%     72.05% # Type of FU issued
system.switch_cpus0.iq.FU_type_0::SimdSha256Hash            0      0.00%     72.05% # Type of FU issued
system.switch_cpus0.iq.FU_type_0::SimdSha256Hash2            0      0.00%     72.05% # Type of FU issued
system.switch_cpus0.iq.FU_type_0::SimdShaSigma2            0      0.00%     72.05% # Type of FU issued
system.switch_cpus0.iq.FU_type_0::SimdShaSigma3            0      0.00%     72.05% # Type of FU issued
system.switch_cpus0.iq.FU_type_0::SimdPredAlu            0      0.00%     72.05% # Type of FU issued
system.switch_cpus0.iq.FU_type_0::MemRead     28378903      7.99%     80.04% # Type of FU issued
system.switch_cpus0.iq.FU_type_0::MemWrite     10651799      3.00%     83.04% # Type of FU issued
system.switch_cpus0.iq.FU_type_0::FloatMemRead     46034725     12.96%     96.01% # Type of FU issued
system.switch_cpus0.iq.FU_type_0::FloatMemWrite     14171838      3.99%    100.00% # Type of FU issued
system.switch_cpus0.iq.FU_type_0::IprAccess            0      0.00%    100.00% # Type of FU issued
system.switch_cpus0.iq.FU_type_0::InstPrefetch            0      0.00%    100.00% # Type of FU issued
system.switch_cpus0.iq.FU_type_0::total     355072264                       # Type of FU issued
system.switch_cpus0.iq.fp_alu_accesses      169685760                       # Number of floating point alu accesses
system.switch_cpus0.iq.fp_inst_queue_reads    336644633                       # Number of floating instruction queue reads
system.switch_cpus0.iq.fp_inst_queue_wakeup_accesses    166948869                       # Number of floating instruction queue wakeup accesses
system.switch_cpus0.iq.fp_inst_queue_writes    167027089                       # Number of floating instruction queue writes
system.switch_cpus0.iq.fu_busy_cnt            5384836                       # FU busy when requested
system.switch_cpus0.iq.fu_busy_rate          0.015165                       # FU busy rate (busy events/executed inst)
system.switch_cpus0.iq.fu_full::No_OpClass            0      0.00%      0.00% # attempts to use FU when none available
system.switch_cpus0.iq.fu_full::IntAlu        1193392     22.16%     22.16% # attempts to use FU when none available
system.switch_cpus0.iq.fu_full::IntMult             0      0.00%     22.16% # attempts to use FU when none available
system.switch_cpus0.iq.fu_full::IntDiv              0      0.00%     22.16% # attempts to use FU when none available
system.switch_cpus0.iq.fu_full::FloatAdd            0      0.00%     22.16% # attempts to use FU when none available
system.switch_cpus0.iq.fu_full::FloatCmp            0      0.00%     22.16% # attempts to use FU when none available
system.switch_cpus0.iq.fu_full::FloatCvt            0      0.00%     22.16% # attempts to use FU when none available
system.switch_cpus0.iq.fu_full::FloatMult            0      0.00%     22.16% # attempts to use FU when none available
system.switch_cpus0.iq.fu_full::FloatMultAcc            0      0.00%     22.16% # attempts to use FU when none available
system.switch_cpus0.iq.fu_full::FloatDiv            0      0.00%     22.16% # attempts to use FU when none available
system.switch_cpus0.iq.fu_full::FloatMisc            0      0.00%     22.16% # attempts to use FU when none available
system.switch_cpus0.iq.fu_full::FloatSqrt            0      0.00%     22.16% # attempts to use FU when none available
system.switch_cpus0.iq.fu_full::SimdAdd             0      0.00%     22.16% # attempts to use FU when none available
system.switch_cpus0.iq.fu_full::SimdAddAcc            0      0.00%     22.16% # attempts to use FU when none available
system.switch_cpus0.iq.fu_full::SimdAlu         34878      0.65%     22.81% # attempts to use FU when none available
system.switch_cpus0.iq.fu_full::SimdCmp             0      0.00%     22.81% # attempts to use FU when none available
system.switch_cpus0.iq.fu_full::SimdCvt             0      0.00%     22.81% # attempts to use FU when none available
system.switch_cpus0.iq.fu_full::SimdMisc            4      0.00%     22.81% # attempts to use FU when none available
system.switch_cpus0.iq.fu_full::SimdMult            0      0.00%     22.81% # attempts to use FU when none available
system.switch_cpus0.iq.fu_full::SimdMultAcc            0      0.00%     22.81% # attempts to use FU when none available
system.switch_cpus0.iq.fu_full::SimdShift            0      0.00%     22.81% # attempts to use FU when none available
system.switch_cpus0.iq.fu_full::SimdShiftAcc            0      0.00%     22.81% # attempts to use FU when none available
system.switch_cpus0.iq.fu_full::SimdDiv             0      0.00%     22.81% # attempts to use FU when none available
system.switch_cpus0.iq.fu_full::SimdSqrt            0      0.00%     22.81% # attempts to use FU when none available
system.switch_cpus0.iq.fu_full::SimdFloatAdd        36574      0.68%     23.49% # attempts to use FU when none available
system.switch_cpus0.iq.fu_full::SimdFloatAlu            0      0.00%     23.49% # attempts to use FU when none available
system.switch_cpus0.iq.fu_full::SimdFloatCmp            0      0.00%     23.49% # attempts to use FU when none available
system.switch_cpus0.iq.fu_full::SimdFloatCvt            0      0.00%     23.49% # attempts to use FU when none available
system.switch_cpus0.iq.fu_full::SimdFloatDiv            0      0.00%     23.49% # attempts to use FU when none available
system.switch_cpus0.iq.fu_full::SimdFloatMisc            0      0.00%     23.49% # attempts to use FU when none available
system.switch_cpus0.iq.fu_full::SimdFloatMult       179877      3.34%     26.83% # attempts to use FU when none available
system.switch_cpus0.iq.fu_full::SimdFloatMultAcc            0      0.00%     26.83% # attempts to use FU when none available
system.switch_cpus0.iq.fu_full::SimdFloatSqrt            0      0.00%     26.83% # attempts to use FU when none available
system.switch_cpus0.iq.fu_full::SimdReduceAdd            0      0.00%     26.83% # attempts to use FU when none available
system.switch_cpus0.iq.fu_full::SimdReduceAlu            0      0.00%     26.83% # attempts to use FU when none available
system.switch_cpus0.iq.fu_full::SimdReduceCmp            0      0.00%     26.83% # attempts to use FU when none available
system.switch_cpus0.iq.fu_full::SimdFloatReduceAdd            0      0.00%     26.83% # attempts to use FU when none available
system.switch_cpus0.iq.fu_full::SimdFloatReduceCmp            0      0.00%     26.83% # attempts to use FU when none available
system.switch_cpus0.iq.fu_full::SimdAes             0      0.00%     26.83% # attempts to use FU when none available
system.switch_cpus0.iq.fu_full::SimdAesMix            0      0.00%     26.83% # attempts to use FU when none available
system.switch_cpus0.iq.fu_full::SimdSha1Hash            0      0.00%     26.83% # attempts to use FU when none available
system.switch_cpus0.iq.fu_full::SimdSha1Hash2            0      0.00%     26.83% # attempts to use FU when none available
system.switch_cpus0.iq.fu_full::SimdSha256Hash            0      0.00%     26.83% # attempts to use FU when none available
system.switch_cpus0.iq.fu_full::SimdSha256Hash2            0      0.00%     26.83% # attempts to use FU when none available
system.switch_cpus0.iq.fu_full::SimdShaSigma2            0      0.00%     26.83% # attempts to use FU when none available
system.switch_cpus0.iq.fu_full::SimdShaSigma3            0      0.00%     26.83% # attempts to use FU when none available
system.switch_cpus0.iq.fu_full::SimdPredAlu            0      0.00%     26.83% # attempts to use FU when none available
system.switch_cpus0.iq.fu_full::MemRead       1436877     26.68%     53.51% # attempts to use FU when none available
system.switch_cpus0.iq.fu_full::MemWrite        27493      0.51%     54.02% # attempts to use FU when none available
system.switch_cpus0.iq.fu_full::FloatMemRead      2474832     45.96%     99.98% # attempts to use FU when none available
system.switch_cpus0.iq.fu_full::FloatMemWrite          909      0.02%    100.00% # attempts to use FU when none available
system.switch_cpus0.iq.fu_full::IprAccess            0      0.00%    100.00% # attempts to use FU when none available
system.switch_cpus0.iq.fu_full::InstPrefetch            0      0.00%    100.00% # attempts to use FU when none available
system.switch_cpus0.iq.int_alu_accesses     190767225                       # Number of integer alu accesses
system.switch_cpus0.iq.int_inst_queue_reads    473367537                       # Number of integer instruction queue reads
system.switch_cpus0.iq.int_inst_queue_wakeup_accesses    188097390                       # Number of integer instruction queue wakeup accesses
system.switch_cpus0.iq.int_inst_queue_writes    188300870                       # Number of integer instruction queue writes
system.switch_cpus0.iq.iqInstsAdded         355132431                       # Number of instructions added to the IQ (excludes non-spec)
system.switch_cpus0.iq.iqInstsIssued        355072264                       # Number of instructions issued
system.switch_cpus0.iq.iqSquashedInstsExamined       193745                       # Number of squashed instructions iterated over during squash; mainly for profiling
system.switch_cpus0.iq.iqSquashedInstsIssued         1896                       # Number of squashed instructions issued
system.switch_cpus0.iq.iqSquashedOperandsExamined       249011                       # Number of squashed operands that are examined and possibly removed from graph
system.switch_cpus0.iq.issued_per_cycle::samples     94480914                       # Number of insts issued each cycle
system.switch_cpus0.iq.issued_per_cycle::mean     3.758137                       # Number of insts issued each cycle
system.switch_cpus0.iq.issued_per_cycle::stdev     2.980310                       # Number of insts issued each cycle
system.switch_cpus0.iq.issued_per_cycle::underflows            0      0.00%      0.00% # Number of insts issued each cycle
system.switch_cpus0.iq.issued_per_cycle::0     26871002     28.44%     28.44% # Number of insts issued each cycle
system.switch_cpus0.iq.issued_per_cycle::1      2945706      3.12%     31.56% # Number of insts issued each cycle
system.switch_cpus0.iq.issued_per_cycle::2      5981284      6.33%     37.89% # Number of insts issued each cycle
system.switch_cpus0.iq.issued_per_cycle::3      7346658      7.78%     45.66% # Number of insts issued each cycle
system.switch_cpus0.iq.issued_per_cycle::4      8478479      8.97%     54.64% # Number of insts issued each cycle
system.switch_cpus0.iq.issued_per_cycle::5     10532816     11.15%     65.79% # Number of insts issued each cycle
system.switch_cpus0.iq.issued_per_cycle::6      9327300      9.87%     75.66% # Number of insts issued each cycle
system.switch_cpus0.iq.issued_per_cycle::7      8399132      8.89%     84.55% # Number of insts issued each cycle
system.switch_cpus0.iq.issued_per_cycle::8     14598537     15.45%    100.00% # Number of insts issued each cycle
system.switch_cpus0.iq.issued_per_cycle::overflows            0      0.00%    100.00% # Number of insts issued each cycle
system.switch_cpus0.iq.issued_per_cycle::min_value            0                       # Number of insts issued each cycle
system.switch_cpus0.iq.issued_per_cycle::max_value            8                       # Number of insts issued each cycle
system.switch_cpus0.iq.issued_per_cycle::total     94480914                       # Number of insts issued each cycle
system.switch_cpus0.iq.rate                  3.756153                       # Inst issue rate
system.switch_cpus0.iq.vec_alu_accesses             0                       # Number of vector alu accesses
system.switch_cpus0.iq.vec_inst_queue_reads            0                       # Number of vector instruction queue reads
system.switch_cpus0.iq.vec_inst_queue_wakeup_accesses            0                       # Number of vector instruction queue wakeup accesses
system.switch_cpus0.iq.vec_inst_queue_writes            0                       # Number of vector instruction queue writes
system.switch_cpus0.memDep0.conflictingLoads      4145342                       # Number of conflicting loads.
system.switch_cpus0.memDep0.conflictingStores       846853                       # Number of conflicting stores.
system.switch_cpus0.memDep0.insertedLoads     74421663                       # Number of loads inserted to the mem dependence unit.
system.switch_cpus0.memDep0.insertedStores     24831261                       # Number of stores inserted to the mem dependence unit.
system.switch_cpus0.misc_regfile_reads      159519715                       # number of misc regfile reads
system.switch_cpus0.misc_regfile_writes             1                       # number of misc regfile writes
system.switch_cpus0.numCycles                94530820                       # number of cpu cycles simulated
system.switch_cpus0.numWorkItemsCompleted            0                       # number of work items this cpu completed
system.switch_cpus0.numWorkItemsStarted             0                       # number of work items this cpu started
system.switch_cpus0.timesIdled                    116                       # Number of times that the entire CPU went into an idle state and unscheduled itself
system.switch_cpus1.cc_regfile_reads          2682739                       # number of cc regfile reads
system.switch_cpus1.cc_regfile_writes         1269287                       # number of cc regfile writes
system.switch_cpus1.committedInsts           74668246                       # Number of Instructions Simulated
system.switch_cpus1.committedOps             82086292                       # Number of Ops (including micro ops) Simulated
system.switch_cpus1.cpi                      1.266011                       # CPI: Cycles Per Instruction
system.switch_cpus1.cpi_total                1.266011                       # CPI: Total CPI of All Threads
system.switch_cpus1.fp_regfile_reads        137157723                       # number of floating regfile reads
system.switch_cpus1.fp_regfile_writes        61881640                       # number of floating regfile writes
system.switch_cpus1.idleCycles                   8550                       # Total number of cycles that the CPU has spent unscheduled due to idling
system.switch_cpus1.iew.branchMispredicts         1618                       # Number of branch mispredicts detected at execute
system.switch_cpus1.iew.exec_branches          473603                       # Number of branches executed
system.switch_cpus1.iew.exec_nop                    0                       # number of nop insts executed
system.switch_cpus1.iew.exec_rate            1.016242                       # Inst execution rate
system.switch_cpus1.iew.exec_refs            46186576                       # number of memory reference insts executed
system.switch_cpus1.iew.exec_stores           9185037                       # Number of stores executed
system.switch_cpus1.iew.exec_swp                    0                       # number of swp insts executed
system.switch_cpus1.iew.iewBlockCycles       15297608                       # Number of cycles IEW is blocking
system.switch_cpus1.iew.iewDispLoadInsts     23073470                       # Number of dispatched load instructions
system.switch_cpus1.iew.iewDispNonSpecInsts            0                       # Number of dispatched non-speculative instructions
system.switch_cpus1.iew.iewDispSquashedInsts           42                       # Number of squashed instructions skipped by dispatch
system.switch_cpus1.iew.iewDispStoreInsts      9196749                       # Number of dispatched store instructions
system.switch_cpus1.iew.iewDispatchedInsts     82156566                       # Number of instructions dispatched to IQ
system.switch_cpus1.iew.iewExecLoadInsts     37001539                       # Number of load instructions executed
system.switch_cpus1.iew.iewExecSquashedInsts         1632                       # Number of squashed instructions skipped in execute
system.switch_cpus1.iew.iewExecutedInsts     96066225                       # Number of executed instructions
system.switch_cpus1.iew.iewIQFullEvents        114690                       # Number of times the IQ has become full, causing a stall
system.switch_cpus1.iew.iewIdleCycles               0                       # Number of cycles IEW is idle
system.switch_cpus1.iew.iewLSQFullEvents     11685158                       # Number of times the LSQ has become full, causing a stall
system.switch_cpus1.iew.iewSquashCycles          1896                       # Number of cycles IEW is squashing
system.switch_cpus1.iew.iewUnblockCycles     11834083                       # Number of cycles IEW is unblocking
system.switch_cpus1.iew.memOrderViolationEvents          599                       # Number of memory order violations
system.switch_cpus1.iew.predictedNotTakenIncorrect         1602                       # Number of branches that were predicted not taken incorrectly
system.switch_cpus1.iew.predictedTakenIncorrect           16                       # Number of branches that were predicted taken incorrectly
system.switch_cpus1.iew.wb_consumers        112651171                       # num instructions consuming a value
system.switch_cpus1.iew.wb_count             82119806                       # cumulative count of insts written-back
system.switch_cpus1.iew.wb_fanout            0.536530                       # average fanout of values written-back
system.switch_cpus1.iew.wb_producers         60440742                       # num instructions producing a value
system.switch_cpus1.iew.wb_rate              0.868709                       # insts written-back per cycle
system.switch_cpus1.iew.wb_sent              82120709                       # cumulative count of insts sent to commit
system.switch_cpus1.int_regfile_reads       102856721                       # number of integer regfile reads
system.switch_cpus1.int_regfile_writes       10580522                       # number of integer regfile writes
system.switch_cpus1.ipc                      0.789883                       # IPC: Instructions Per Cycle
system.switch_cpus1.ipc_total                0.789883                       # IPC: Total IPC of All Threads
system.switch_cpus1.iq.FU_type_0::No_OpClass            0      0.00%      0.00% # Type of FU issued
system.switch_cpus1.iq.FU_type_0::IntAlu     11933447     12.42%     12.42% # Type of FU issued
system.switch_cpus1.iq.FU_type_0::IntMult            0      0.00%     12.42% # Type of FU issued
system.switch_cpus1.iq.FU_type_0::IntDiv            0      0.00%     12.42% # Type of FU issued
system.switch_cpus1.iq.FU_type_0::FloatAdd            0      0.00%     12.42% # Type of FU issued
system.switch_cpus1.iq.FU_type_0::FloatCmp            0      0.00%     12.42% # Type of FU issued
system.switch_cpus1.iq.FU_type_0::FloatCvt            0      0.00%     12.42% # Type of FU issued
system.switch_cpus1.iq.FU_type_0::FloatMult            0      0.00%     12.42% # Type of FU issued
system.switch_cpus1.iq.FU_type_0::FloatMultAcc            0      0.00%     12.42% # Type of FU issued
system.switch_cpus1.iq.FU_type_0::FloatDiv            0      0.00%     12.42% # Type of FU issued
system.switch_cpus1.iq.FU_type_0::FloatMisc            0      0.00%     12.42% # Type of FU issued
system.switch_cpus1.iq.FU_type_0::FloatSqrt            0      0.00%     12.42% # Type of FU issued
system.switch_cpus1.iq.FU_type_0::SimdAdd            0      0.00%     12.42% # Type of FU issued
system.switch_cpus1.iq.FU_type_0::SimdAddAcc            0      0.00%     12.42% # Type of FU issued
system.switch_cpus1.iq.FU_type_0::SimdAlu           16      0.00%     12.42% # Type of FU issued
system.switch_cpus1.iq.FU_type_0::SimdCmp            0      0.00%     12.42% # Type of FU issued
system.switch_cpus1.iq.FU_type_0::SimdCvt            0      0.00%     12.42% # Type of FU issued
system.switch_cpus1.iq.FU_type_0::SimdMisc            0      0.00%     12.42% # Type of FU issued
system.switch_cpus1.iq.FU_type_0::SimdMult            0      0.00%     12.42% # Type of FU issued
system.switch_cpus1.iq.FU_type_0::SimdMultAcc            0      0.00%     12.42% # Type of FU issued
system.switch_cpus1.iq.FU_type_0::SimdShift            0      0.00%     12.42% # Type of FU issued
system.switch_cpus1.iq.FU_type_0::SimdShiftAcc            0      0.00%     12.42% # Type of FU issued
system.switch_cpus1.iq.FU_type_0::SimdDiv            0      0.00%     12.42% # Type of FU issued
system.switch_cpus1.iq.FU_type_0::SimdSqrt            0      0.00%     12.42% # Type of FU issued
system.switch_cpus1.iq.FU_type_0::SimdFloatAdd     23352356     24.31%     36.73% # Type of FU issued
system.switch_cpus1.iq.FU_type_0::SimdFloatAlu            0      0.00%     36.73% # Type of FU issued
system.switch_cpus1.iq.FU_type_0::SimdFloatCmp            0      0.00%     36.73% # Type of FU issued
system.switch_cpus1.iq.FU_type_0::SimdFloatCvt            0      0.00%     36.73% # Type of FU issued
system.switch_cpus1.iq.FU_type_0::SimdFloatDiv       460854      0.48%     37.21% # Type of FU issued
system.switch_cpus1.iq.FU_type_0::SimdFloatMisc            0      0.00%     37.21% # Type of FU issued
system.switch_cpus1.iq.FU_type_0::SimdFloatMult     14133017     14.71%     51.92% # Type of FU issued
system.switch_cpus1.iq.FU_type_0::SimdFloatMultAcc            0      0.00%     51.92% # Type of FU issued
system.switch_cpus1.iq.FU_type_0::SimdFloatSqrt            0      0.00%     51.92% # Type of FU issued
system.switch_cpus1.iq.FU_type_0::SimdReduceAdd            0      0.00%     51.92% # Type of FU issued
system.switch_cpus1.iq.FU_type_0::SimdReduceAlu            0      0.00%     51.92% # Type of FU issued
system.switch_cpus1.iq.FU_type_0::SimdReduceCmp            0      0.00%     51.92% # Type of FU issued
system.switch_cpus1.iq.FU_type_0::SimdFloatReduceAdd            0      0.00%     51.92% # Type of FU issued
system.switch_cpus1.iq.FU_type_0::SimdFloatReduceCmp            0      0.00%     51.92% # Type of FU issued
system.switch_cpus1.iq.FU_type_0::SimdAes            0      0.00%     51.92% # Type of FU issued
system.switch_cpus1.iq.FU_type_0::SimdAesMix            0      0.00%     51.92% # Type of FU issued
system.switch_cpus1.iq.FU_type_0::SimdSha1Hash            0      0.00%     51.92% # Type of FU issued
system.switch_cpus1.iq.FU_type_0::SimdSha1Hash2            0      0.00%     51.92% # Type of FU issued
system.switch_cpus1.iq.FU_type_0::SimdSha256Hash            0      0.00%     51.92% # Type of FU issued
system.switch_cpus1.iq.FU_type_0::SimdSha256Hash2            0      0.00%     51.92% # Type of FU issued
system.switch_cpus1.iq.FU_type_0::SimdShaSigma2            0      0.00%     51.92% # Type of FU issued
system.switch_cpus1.iq.FU_type_0::SimdShaSigma3            0      0.00%     51.92% # Type of FU issued
[...]
system.switch_cpus3.commit.numCommittedDist::stdev     3.283733                       # Number of insts commited each cycle
system.switch_cpus3.commit.numCommittedDist::underflows            0      0.00%      0.00% # Number of insts commited each cycle
system.switch_cpus3.commit.numCommittedDist::0     15248469     17.38%     17.38% # Number of insts commited each cycle
system.switch_cpus3.commit.numCommittedDist::1      6903975      7.87%     25.25% # Number of insts commited each cycle
system.switch_cpus3.commit.numCommittedDist::2      4821555      5.50%     30.75% # Number of insts commited each cycle
system.switch_cpus3.commit.numCommittedDist::3      9618921     10.97%     41.72% # Number of insts commited each cycle
system.switch_cpus3.commit.numCommittedDist::4      3053720      3.48%     45.20% # Number of insts commited each cycle
system.switch_cpus3.commit.numCommittedDist::5      2144962      2.45%     47.64% # Number of insts commited each cycle
system.switch_cpus3.commit.numCommittedDist::6      3240972      3.69%     51.34% # Number of insts commited each cycle
system.switch_cpus3.commit.numCommittedDist::7      3269231      3.73%     55.06% # Number of insts commited each cycle
system.switch_cpus3.commit.numCommittedDist::8     39418011     44.94%    100.00% # Number of insts commited each cycle
system.switch_cpus3.commit.numCommittedDist::overflows            0      0.00%    100.00% # Number of insts commited each cycle
system.switch_cpus3.commit.numCommittedDist::min_value            0                       # Number of insts commited each cycle
system.switch_cpus3.commit.numCommittedDist::max_value            8                       # Number of insts commited each cycle
system.switch_cpus3.commit.numCommittedDist::total     87719816                       # Number of insts commited each cycle
system.switch_cpus3.commit.instsCommitted    236423459                       # Number of instructions committed
system.switch_cpus3.commit.opsCommitted     426018075                       # Number of ops (including micro ops) committed
system.switch_cpus3.commit.memRefs          124986712                       # Number of memory references committed
system.switch_cpus3.commit.loads             86800833                       # Number of loads committed
system.switch_cpus3.commit.amos                     0                       # Number of atomic instructions committed
system.switch_cpus3.commit.membars                  0                       # Number of memory barriers committed
system.switch_cpus3.commit.branches          41866477                       # Number of branches committed
system.switch_cpus3.commit.vector                   0                       # Number of committed Vector instructions.
system.switch_cpus3.commit.floating          88680454                       # Number of committed floating point instructions.
system.switch_cpus3.commit.integer          374259050                       # Number of committed integer instructions.
system.switch_cpus3.commit.functionCalls      6559469                       # Number of function calls committed.
system.switch_cpus3.commit.committedInstType_0::No_OpClass      2282200      0.54%      0.54% # Class of committed instruction
system.switch_cpus3.commit.committedInstType_0::IntAlu    254071671     59.64%     60.17% # Class of committed instruction
system.switch_cpus3.commit.committedInstType_0::IntMult       892988      0.21%     60.38% # Class of committed instruction
system.switch_cpus3.commit.committedInstType_0::IntDiv            0      0.00%     60.38% # Class of committed instruction
system.switch_cpus3.commit.committedInstType_0::FloatAdd       966798      0.23%     60.61% # Class of committed instruction
system.switch_cpus3.commit.committedInstType_0::FloatCmp            0      0.00%     60.61% # Class of committed instruction
system.switch_cpus3.commit.committedInstType_0::FloatCvt            0      0.00%     60.61% # Class of committed instruction
system.switch_cpus3.commit.committedInstType_0::FloatMult            0      0.00%     60.61% # Class of committed instruction
system.switch_cpus3.commit.committedInstType_0::FloatMultAcc            0      0.00%     60.61% # Class of committed instruction
system.switch_cpus3.commit.committedInstType_0::FloatDiv            0      0.00%     60.61% # Class of committed instruction
system.switch_cpus3.commit.committedInstType_0::FloatMisc            0      0.00%     60.61% # Class of committed instruction
system.switch_cpus3.commit.committedInstType_0::FloatSqrt            0      0.00%     60.61% # Class of committed instruction
system.switch_cpus3.commit.committedInstType_0::SimdAdd            0      0.00%     60.61% # Class of committed instruction
system.switch_cpus3.commit.committedInstType_0::SimdAddAcc            0      0.00%     60.61% # Class of committed instruction
system.switch_cpus3.commit.committedInstType_0::SimdAlu      2780314      0.65%     61.26% # Class of committed instruction
system.switch_cpus3.commit.committedInstType_0::SimdCmp            0      0.00%     61.26% # Class of committed instruction
system.switch_cpus3.commit.committedInstType_0::SimdCvt            0      0.00%     61.26% # Class of committed instruction
system.switch_cpus3.commit.committedInstType_0::SimdMisc        76054      0.02%     61.28% # Class of committed instruction
system.switch_cpus3.commit.committedInstType_0::SimdMult            0      0.00%     61.28% # Class of committed instruction
system.switch_cpus3.commit.committedInstType_0::SimdMultAcc            0      0.00%     61.28% # Class of committed instruction
system.switch_cpus3.commit.committedInstType_0::SimdShift            0      0.00%     61.28% # Class of committed instruction
system.switch_cpus3.commit.committedInstType_0::SimdShiftAcc            0      0.00%     61.28% # Class of committed instruction
system.switch_cpus3.commit.committedInstType_0::SimdDiv            0      0.00%     61.28% # Class of committed instruction
system.switch_cpus3.commit.committedInstType_0::SimdSqrt            0      0.00%     61.28% # Class of committed instruction
system.switch_cpus3.commit.committedInstType_0::SimdFloatAdd     16251691      3.81%     65.10% # Class of committed instruction
system.switch_cpus3.commit.committedInstType_0::SimdFloatAlu            0      0.00%     65.10% # Class of committed instruction
system.switch_cpus3.commit.committedInstType_0::SimdFloatCmp        58337      0.01%     65.11% # Class of committed instruction
system.switch_cpus3.commit.committedInstType_0::SimdFloatCvt      7018555      1.65%     66.76% # Class of committed instruction
system.switch_cpus3.commit.committedInstType_0::SimdFloatDiv       563208      0.13%     66.89% # Class of committed instruction
system.switch_cpus3.commit.committedInstType_0::SimdFloatMisc            0      0.00%     66.89% # Class of committed instruction
system.switch_cpus3.commit.committedInstType_0::SimdFloatMult     16039008      3.76%     70.65% # Class of committed instruction
system.switch_cpus3.commit.committedInstType_0::SimdFloatMultAcc            0      0.00%     70.65% # Class of committed instruction
system.switch_cpus3.commit.committedInstType_0::SimdFloatSqrt        30539      0.01%     70.66% # Class of committed instruction
system.switch_cpus3.commit.committedInstType_0::SimdReduceAdd            0      0.00%     70.66% # Class of committed instruction
system.switch_cpus3.commit.committedInstType_0::SimdReduceAlu            0      0.00%     70.66% # Class of committed instruction
system.switch_cpus3.commit.committedInstType_0::SimdReduceCmp            0      0.00%     70.66% # Class of committed instruction
system.switch_cpus3.commit.committedInstType_0::SimdFloatReduceAdd            0      0.00%     70.66% # Class of committed instruction
system.switch_cpus3.commit.committedInstType_0::SimdFloatReduceCmp            0      0.00%     70.66% # Class of committed instruction
system.switch_cpus3.commit.committedInstType_0::SimdAes            0      0.00%     70.66% # Class of committed instruction
system.switch_cpus3.commit.committedInstType_0::SimdAesMix            0      0.00%     70.66% # Class of committed instruction
system.switch_cpus3.commit.committedInstType_0::SimdSha1Hash            0      0.00%     70.66% # Class of committed instruction
system.switch_cpus3.commit.committedInstType_0::SimdSha1Hash2            0      0.00%     70.66% # Class of committed instruction
system.switch_cpus3.commit.committedInstType_0::SimdSha256Hash            0      0.00%     70.66% # Class of committed instruction
system.switch_cpus3.commit.committedInstType_0::SimdSha256Hash2            0      0.00%     70.66% # Class of committed instruction
system.switch_cpus3.commit.committedInstType_0::SimdShaSigma2            0      0.00%     70.66% # Class of committed instruction
system.switch_cpus3.commit.committedInstType_0::SimdShaSigma3            0      0.00%     70.66% # Class of committed instruction
system.switch_cpus3.commit.committedInstType_0::SimdPredAlu            0      0.00%     70.66% # Class of committed instruction
system.switch_cpus3.commit.committedInstType_0::MemRead     53579953     12.58%     83.24% # Class of committed instruction
system.switch_cpus3.commit.committedInstType_0::MemWrite     32270849      7.57%     90.81% # Class of committed instruction
system.switch_cpus3.commit.committedInstType_0::FloatMemRead     33220880      7.80%     98.61% # Class of committed instruction
system.switch_cpus3.commit.committedInstType_0::FloatMemWrite      5915030      1.39%    100.00% # Class of committed instruction
system.switch_cpus3.commit.committedInstType_0::IprAccess            0      0.00%    100.00% # Class of committed instruction
system.switch_cpus3.commit.committedInstType_0::InstPrefetch            0      0.00%    100.00% # Class of committed instruction
system.switch_cpus3.commit.committedInstType_0::total    426018075                       # Class of committed instruction
system.switch_cpus3.commit.commitEligibleSamples     39418011                       # number cycles where commit BW limit reached
system.switch_cpus3.decode.idleCycles         5637018                       # Number of cycles decode is idle
system.switch_cpus3.decode.blockedCycles     14454711                       # Number of cycles decode is blocked
system.switch_cpus3.decode.runCycles         67625632                       # Number of cycles decode is running
system.switch_cpus3.decode.unblockCycles      5763725                       # Number of cycles decode is unblocking
system.switch_cpus3.decode.squashCycles        945314                       # Number of cycles decode is squashing
system.switch_cpus3.decode.branchResolved     20218564                       # Number of times decode resolved a  branch
system.switch_cpus3.decode.branchMispred        59370                       # Number of times decode detected a branch misprediction
system.switch_cpus3.decode.decodedInsts     494146899                       # Number of instructions handled by decode
system.switch_cpus3.decode.squashedInsts       343475                       # Number of squashed instructions handled by decode
system.switch_cpus3.dtb.rdAccesses           93235831                       # TLB accesses on read requests
system.switch_cpus3.dtb.wrAccesses           40330125                       # TLB accesses on write requests
system.switch_cpus3.dtb.rdMisses               609435                       # TLB misses on read requests
system.switch_cpus3.dtb.wrMisses               102971                       # TLB misses on write requests
system.switch_cpus3.dtb.walker.power_state.pwrStateResidencyTicks::UNDEFINED 13750531311393                       # Cumulative time (in ticks) in various power states
system.switch_cpus3.fetch.icacheStallCycles       943339                       # Number of cycles fetch is stalled on an Icache miss
system.switch_cpus3.fetch.insts             279165095                       # Number of instructions fetch has processed
system.switch_cpus3.fetch.branches           49825500                       # Number of branches that fetch encountered
system.switch_cpus3.fetch.predictedBranches     31254201                       # Number of branches that fetch has predicted taken
system.switch_cpus3.fetch.cycles             92478886                       # Number of cycles fetch has run and was not squashing or blocked
system.switch_cpus3.fetch.squashCycles        2008354                       # Number of cycles fetch has spent squashing
system.switch_cpus3.fetch.cacheLines         43026219                       # Number of cache lines fetched
system.switch_cpus3.fetch.icacheSquashes          288                       # Number of outstanding Icache misses that were squashed
system.switch_cpus3.fetch.nisnDist::samples     94426402                       # Number of instructions fetched each cycle (Total)
system.switch_cpus3.fetch.nisnDist::mean     5.360120                       # Number of instructions fetched each cycle (Total)
system.switch_cpus3.fetch.nisnDist::stdev     2.946975                       # Number of instructions fetched each cycle (Total)
system.switch_cpus3.fetch.nisnDist::underflows            0      0.00%      0.00% # Number of instructions fetched each cycle (Total)
system.switch_cpus3.fetch.nisnDist::0        11079286     11.73%     11.73% # Number of instructions fetched each cycle (Total)
system.switch_cpus3.fetch.nisnDist::1         3970799      4.21%     15.94% # Number of instructions fetched each cycle (Total)
system.switch_cpus3.fetch.nisnDist::2         6265656      6.64%     22.57% # Number of instructions fetched each cycle (Total)
system.switch_cpus3.fetch.nisnDist::3         4103683      4.35%     26.92% # Number of instructions fetched each cycle (Total)
system.switch_cpus3.fetch.nisnDist::4        11413825     12.09%     39.01% # Number of instructions fetched each cycle (Total)
system.switch_cpus3.fetch.nisnDist::5         3086926      3.27%     42.28% # Number of instructions fetched each cycle (Total)
system.switch_cpus3.fetch.nisnDist::6         8048650      8.52%     50.80% # Number of instructions fetched each cycle (Total)
system.switch_cpus3.fetch.nisnDist::7         3718776      3.94%     54.74% # Number of instructions fetched each cycle (Total)
system.switch_cpus3.fetch.nisnDist::8        42738801     45.26%    100.00% # Number of instructions fetched each cycle (Total)
system.switch_cpus3.fetch.nisnDist::overflows            0      0.00%    100.00% # Number of instructions fetched each cycle (Total)
system.switch_cpus3.fetch.nisnDist::min_value            0                       # Number of instructions fetched each cycle (Total)
system.switch_cpus3.fetch.nisnDist::max_value            8                       # Number of instructions fetched each cycle (Total)
system.switch_cpus3.fetch.nisnDist::total     94426402                       # Number of instructions fetched each cycle (Total)
system.switch_cpus3.fetch.branchRate         0.527082                       # Number of branch fetches per cycle
system.switch_cpus3.fetch.rate               2.953165                       # Number of inst fetches per cycle
system.switch_cpus3.itb.rdAccesses                  0                       # TLB accesses on read requests
system.switch_cpus3.itb.wrAccesses           43026219                       # TLB accesses on write requests
system.switch_cpus3.itb.rdMisses                    0                       # TLB misses on read requests
system.switch_cpus3.itb.wrMisses                   56                       # TLB misses on write requests
system.switch_cpus3.itb.walker.power_state.pwrStateResidencyTicks::UNDEFINED 13750531311393                       # Cumulative time (in ticks) in various power states
system.switch_cpus3.lsq0.forwLoads           17359752                       # Number of loads that had data forwarded from stores
system.switch_cpus3.lsq0.squashedLoads       10736192                       # Number of loads squashed
system.switch_cpus3.lsq0.ignoredResponses         5613                       # Number of memory responses ignored because the instruction is squashed
system.switch_cpus3.lsq0.memOrderViolation        16340                       # Number of memory ordering violations
system.switch_cpus3.lsq0.squashedStores       4686459                       # Number of stores squashed
system.switch_cpus3.lsq0.rescheduledLoads        57112                       # Number of loads that were rescheduled
system.switch_cpus3.lsq0.blockedByCache             0                       # Number of times an access to memory failed due to the cache being blocked
system.switch_cpus3.power_state.pwrStateResidencyTicks::OFF  31478773383                       # Cumulative time (in ticks) in various power states
system.switch_cpus3.rename.squashCycles        945314                       # Number of cycles rename is squashing
system.switch_cpus3.rename.idleCycles         8464046                       # Number of cycles rename is idle
system.switch_cpus3.rename.blockCycles        6281408                       # Number of cycles rename is blocking
system.switch_cpus3.rename.serializeStallCycles            0                       # count of cycles rename stalledfor serializing inst
system.switch_cpus3.rename.runCycles         70474877                       # Number of cycles rename is running
system.switch_cpus3.rename.unblockCycles      8260754                       # Number of cycles rename is unblocking
system.switch_cpus3.rename.renamedInsts     487987849                       # Number of instructions processed by rename
system.switch_cpus3.rename.ROBFullEvents        36116                       # Number of times rename has blocked due to ROB full
system.switch_cpus3.rename.IQFullEvents       2227944                       # Number of times rename has blocked due to IQ full
system.switch_cpus3.rename.LQFullEvents       1716360                       # Number of times rename has blocked due to LQ full
system.switch_cpus3.rename.SQFullEvents       2892431                       # Number of times rename has blocked due to SQ full
system.switch_cpus3.rename.renamedOperands    493711324                       # Number of destination operands rename has renamed
system.switch_cpus3.rename.lookups         1285735637                       # Number of register rename lookups that rename has made
system.switch_cpus3.rename.intLookups       682583617                       # Number of integer rename lookups
system.switch_cpus3.rename.fpLookups        149337846                       # Number of floating rename lookups
system.switch_cpus3.rename.committedMaps    430488409                       # Number of HB maps that are committed
system.switch_cpus3.rename.undoneMaps        63222818                       # Number of HB maps that are undone due to squashing
system.switch_cpus3.rename.serializing              0                       # count of serializing insts renamed
system.switch_cpus3.rename.tempSerializing            0                       # count of temporary serializing insts renamed
system.switch_cpus3.rename.skidInsts         21786682                       # count of insts added to the skid buffer
system.switch_cpus3.rob.reads               524332276                       # The number of ROB reads
system.switch_cpus3.rob.writes              958768612                       # The number of ROB writes
system.switch_cpus3.thread0.numInsts        236423459                       # Number of Instructions committed
system.switch_cpus3.thread0.numOps          426018075                       # Number of Ops committed
system.switch_cpus3.thread0.numMemRefs              0                       # Number of Memory References
system.voltage_domain.voltage                       1                       # Voltage in Volts

---------- End Simulation Statistics   ----------
