Command line:
./runscript_pride.sh mix12 RFM1.BR2.4C 4 2017 --rh_defense --rh_mitigation=RFM --rh_rfm_per_trefi=1 --rh_rfm_blast_radius=2 --rh_rfm_maxacts_per_trefi=79
Global frequency set at 1000000000000 ticks per second
RFM details - rfm_act_threshold: 79, blast_radius: 2, delay_per_rfm: 175000 ps. sample_rate: 0.012500
RH Defense config: RFM, Bus Delay: 0, rfms_per_trefi: 1, rfm_act_threshold: 79, blast_radius: 2,rfm_delay_per_act: 45000 ps.
DRAM config: RowsPerBank: 65536, BanksPerRank: 32, RanksPerChannel: 1
warn: Sockets disabled, not accepting gdb connections
warn: CoherentXBar system.cpu0.mmucache.mmubus has no snooping ports attached!
warn: CoherentXBar system.cpu1.mmucache.mmubus has no snooping ports attached!
warn: CoherentXBar system.cpu2.mmucache.mmubus has no snooping ports attached!
warn: CoherentXBar system.cpu3.mmucache.mmubus has no snooping ports attached!
warn: Checkpoints for file descriptors currently do not work.
warn: Checkpoints for file descriptors currently do not work.
warn: Checkpoints for file descriptors currently do not work.
warn: Checkpoints for file descriptors currently do not work.
gem5 Simulator System.  http://gem5.org
gem5 is copyrighted software; use the --copyright option for details.

gem5 version 20.1.0.5
gem5 compiled Jul 12 2024 12:42:38
gem5 started Aug  1 2024 16:47:12
gem5 executing on a07dda8b130c, pid 249955
command line: /home/user/PrIDE/performance/gem5/build/X86/gem5.opt --outdir=/home/user/PrIDE/performance/gem5/stats/pride_multiprogram_16GBmem_250Mn.SPEC2017.C4/RFM1.BR2.4C/mix12 /home/user/PrIDE/performance/gem5/configs/example/se_rq_spec_config_multicore.py --redirects /lib64=/home/utils/gcc-6.2.0/lib64 --benchmark=mix12 --benchmark_stdout=/home/user/PrIDE/performance/gem5/stats/pride_multiprogram_16GBmem_250Mn.SPEC2017.C4/RFM1.BR2.4C/mix12/mix12.out --benchmark_stderr=/home/user/PrIDE/performance/gem5/stats/pride_multiprogram_16GBmem_250Mn.SPEC2017.C4/RFM1.BR2.4C/mix12/mix12.err --spec-version=2017 --rh_defense --rh_mitigation=RFM --rh_rfm_per_trefi=1 --rh_rfm_blast_radius=2 --rh_rfm_maxacts_per_trefi=79 --num-cpus=4 --mem-size=16GB --mem-type=DDR5_2400_32x4 --mem-ranks=1 --mem-channels=1 --checkpoint-dir=/home/user/PrIDE/performance/gem5/cpts-DDR5/multiprogram_16GBmem_25Bn.SPEC2017.C4/mix12-1-ref-x86 --checkpoint-restore=25000000000 --at-instruction --cpu-type DerivO3CPU --caches --l2cache --l1d_size=32kB --l1i_size=32kB --l2_size=256kB --l3_size=4MB --l1d_assoc=8 --l1i_assoc=8 --l2_assoc=16 --l3_assoc=16 --cpu-clock=3GHz --sys-clock=3GHz --maxinsts=250000000 --prog-interval=300Hz

info: Standard input is not a terminal, disabling listeners.
Benchmark- 0   roms
Selected benchmark
--> roms
CMD: ['/opt/spec2017/benchspec/CPU/554.roms_r/run/run_base_refrate_gem5_se-m64.0000/roms_r_base.gem5_se-m64']
CWD: /opt/spec2017/benchspec/CPU/554.roms_r/run/run_base_refrate_gem5_se-m64.0000/
Process stdout file: /home/user/PrIDE/performance/gem5/stats/pride_multiprogram_16GBmem_250Mn.SPEC2017.C4/RFM1.BR2.4C/mix12/mix12.out_0
Process stderr file: /home/user/PrIDE/performance/gem5/stats/pride_multiprogram_16GBmem_250Mn.SPEC2017.C4/RFM1.BR2.4C/mix12/mix12.err_0
Benchmark- 1   mcf
Selected benchmark
--> mcf
CMD: ['/opt/spec2017/benchspec/CPU/505.mcf_r/run/run_base_refrate_gem5_se-m64.0000/mcf_r_base.gem5_se-m64', '/opt/spec2017/benchspec/CPU/505.mcf_r/run/run_base_refrate_gem5_se-m64.0000/inp.in']
CWD: /opt/spec2017/benchspec/CPU/505.mcf_r/run/run_base_refrate_gem5_se-m64.0000/
Process stdout file: /home/user/PrIDE/performance/gem5/stats/pride_multiprogram_16GBmem_250Mn.SPEC2017.C4/RFM1.BR2.4C/mix12/mix12.out_1
Process stderr file: /home/user/PrIDE/performance/gem5/stats/pride_multiprogram_16GBmem_250Mn.SPEC2017.C4/RFM1.BR2.4C/mix12/mix12.err_1
Benchmark- 2   imagick
Selected benchmark
--> imagick
CMD: ['/opt/spec2017/benchspec/CPU/538.imagick_r/run/run_base_refrate_gem5_se-m64.0000/imagick_r_base.gem5_se-m64', '-limit', 'disk', '0', '/opt/spec2017/benchspec/CPU/538.imagick_r/run/run_base_refrate_gem5_se-m64.0000/refrate_input.tga', '-edge', '41', '-resample', '181%', '-emboss', '31', '-colorspace', 'YUV', '-mean-shift', '19x19+15%', '-resize', '30%', '/opt/spec2017/benchspec/CPU/538.imagick_r/run/run_base_refrate_gem5_se-m64.0000/refrate_output.tga']
CWD: /opt/spec2017/benchspec/CPU/538.imagick_r/run/run_base_refrate_gem5_se-m64.0000/
Process stdout file: /home/user/PrIDE/performance/gem5/stats/pride_multiprogram_16GBmem_250Mn.SPEC2017.C4/RFM1.BR2.4C/mix12/mix12.out_2
Process stderr file: /home/user/PrIDE/performance/gem5/stats/pride_multiprogram_16GBmem_250Mn.SPEC2017.C4/RFM1.BR2.4C/mix12/mix12.err_2
Benchmark- 3   blender
Selected benchmark
--> blender
CMD: ['/opt/spec2017/benchspec/CPU/526.blender_r/run/run_base_refrate_gem5_se-m64.0000/blender_r_base.gem5_se-m64', '/opt/spec2017/benchspec/CPU/526.blender_r/run/run_base_refrate_gem5_se-m64.0000/sh3_no_char.blend', '--render-output', 'sh3_no_char_', '--threads', '1', '-b', '-F', 'RAWTGA', '-s', '849', '-e', '849', '-a']
CWD: /opt/spec2017/benchspec/CPU/526.blender_r/run/run_base_refrate_gem5_se-m64.0000/
Process stdout file: /home/user/PrIDE/performance/gem5/stats/pride_multiprogram_16GBmem_250Mn.SPEC2017.C4/RFM1.BR2.4C/mix12/mix12.out_3
Process stderr file: /home/user/PrIDE/performance/gem5/stats/pride_multiprogram_16GBmem_250Mn.SPEC2017.C4/RFM1.BR2.4C/mix12/mix12.err_3
Workload-0: 
['/opt/spec2017/benchspec/CPU/554.roms_r/run/run_base_refrate_gem5_se-m64.0000/roms_r_base.gem5_se-m64']
Workload-1: 
['/opt/spec2017/benchspec/CPU/505.mcf_r/run/run_base_refrate_gem5_se-m64.0000/mcf_r_base.gem5_se-m64', '/opt/spec2017/benchspec/CPU/505.mcf_r/run/run_base_refrate_gem5_se-m64.0000/inp.in']
Workload-2: 
['/opt/spec2017/benchspec/CPU/538.imagick_r/run/run_base_refrate_gem5_se-m64.0000/imagick_r_base.gem5_se-m64', '-limit', 'disk', '0', '/opt/spec2017/benchspec/CPU/538.imagick_r/run/run_base_refrate_gem5_se-m64.0000/refrate_input.tga', '-edge', '41', '-resample', '181%', '-emboss', '31', '-colorspace', 'YUV', '-mean-shift', '19x19+15%', '-resize', '30%', '/opt/spec2017/benchspec/CPU/538.imagick_r/run/run_base_refrate_gem5_se-m64.0000/refrate_output.tga']
Workload-3: 
['/opt/spec2017/benchspec/CPU/526.blender_r/run/run_base_refrate_gem5_se-m64.0000/blender_r_base.gem5_se-m64', '/opt/spec2017/benchspec/CPU/526.blender_r/run/run_base_refrate_gem5_se-m64.0000/sh3_no_char.blend', '--render-output', 'sh3_no_char_', '--threads', '1', '-b', '-F', 'RAWTGA', '-s', '849', '-e', '849', '-a']
defense_enable:  True  detector:  MG  mitigation:  RFM  threshold:  800
mg_entries:  1700
rfm_maxacts_per_trefi:  79 rfm_per_trefi:  1 rfm_blast_radius:  2
Switch at curTick count:10000
warn: membus.master is deprecated. `master` is now called `mem_side_ports`
warn: No dot file generated. Please install pydot to generate the dot file and pdf.
info: Entering event queue @ 15651257118624.  Starting simulation...
info: Entering event queue @ 15651257128624.  Starting simulation...
warn: PowerState: Already in the requested power state, request ignored
Switched CPUS @ tick 15651257128624
switching cpus
**** REAL SIMULATION ****
info: Entering event queue @ 15651257129280.  Starting simulation...
15654590451957: Event_285: system.switch_cpus3 progress event, total committed:37371636, progress insts committed: 37371636, IPC: 03.73343
15654590451957: Event_284: system.switch_cpus2 progress event, total committed:51597440, progress insts committed: 51597440, IPC: 05.15458
15654590451957: Event_283: system.switch_cpus1 progress event, total committed:10888396, progress insts committed: 10888396, IPC: 01.08775
15654590451957: Event_282: system.switch_cpus0 progress event, total committed:8880217, progress insts committed: 8880217, IPC: 0.887134
warn: MOVNTDQ: Ignoring non-temporal hint, modeling as cacheable!
15657923785290: Event_282: system.switch_cpus0 progress event, total committed:18031471, progress insts committed: 9151254, IPC: 00.91421
15657923785290: Event_283: system.switch_cpus1 progress event, total committed:22431261, progress insts committed: 11542865, IPC: 01.15313
15657923785290: Event_284: system.switch_cpus2 progress event, total committed:97921522, progress insts committed: 46324082, IPC: 04.62778
15657923785290: Event_285: system.switch_cpus3 progress event, total committed:75256529, progress insts committed: 37884893, IPC: 003.7847
15661257118623: Event_285: system.switch_cpus3 progress event, total committed:113055805, progress insts committed: 37799276, IPC: 03.77615
15661257118623: Event_284: system.switch_cpus2 progress event, total committed:122050799, progress insts committed: 24129277, IPC: 02.41051
15661257118623: Event_283: system.switch_cpus1 progress event, total committed:33727725, progress insts committed: 11296464, IPC: 01.12852
15661257118623: Event_282: system.switch_cpus0 progress event, total committed:26726925, progress insts committed: 8695454, IPC: 0.868676
15664590451956: Event_282: system.switch_cpus0 progress event, total committed:36654508, progress insts committed: 9927583, IPC: 0.991766
15664590451956: Event_283: system.switch_cpus1 progress event, total committed:43410211, progress insts committed: 9682486, IPC: 00.96728
15664590451956: Event_284: system.switch_cpus2 progress event, total committed:174937484, progress insts committed: 52886685, IPC: 05.28338
15664590451956: Event_285: system.switch_cpus3 progress event, total committed:148947420, progress insts committed: 35891615, IPC: 03.58557
15667923785289: Event_285: system.switch_cpus3 progress event, total committed:184331060, progress insts committed: 35383640, IPC: 03.53483
15667923785289: Event_284: system.switch_cpus2 progress event, total committed:227789379, progress insts committed: 52851895, IPC: 005.2799
15667923785289: Event_283: system.switch_cpus1 progress event, total committed:53210768, progress insts committed: 9800557, IPC: 0.979076
15667923785289: Event_282: system.switch_cpus0 progress event, total committed:45964038, progress insts committed: 9309530, IPC: 0.930022
15671257118622: Event_282: system.switch_cpus0 progress event, total committed:57246520, progress insts committed: 11282482, IPC: 01.12712
15671257118622: Event_283: system.switch_cpus1 progress event, total committed:63603415, progress insts committed: 10392647, IPC: 01.03823
15671257118622: Event_284: system.switch_cpus2 progress event, total committed:280659178, progress insts committed: 52869799, IPC: 05.28169
15671257118622: Event_285: system.switch_cpus3 progress event, total committed:220614892, progress insts committed: 36283832, IPC: 03.62475
15674590451955: Event_285: system.switch_cpus3 progress event, total committed:258756801, progress insts committed: 38141909, IPC: 03.81038
15674590451955: Event_284: system.switch_cpus2 progress event, total committed:333773631, progress insts committed: 53114453, IPC: 05.30613
15674590451955: Event_283: system.switch_cpus1 progress event, total committed:74761126, progress insts committed: 11157711, IPC: 01.11466
15674590451955: Event_282: system.switch_cpus0 progress event, total committed:81437802, progress insts committed: 24191282, IPC: 02.41671
15677923785288: Event_282: system.switch_cpus0 progress event, total committed:105762450, progress insts committed: 24324648, IPC: 02.43003
15677923785288: Event_283: system.switch_cpus1 progress event, total committed:86718851, progress insts committed: 11957725, IPC: 01.19458
15677923785288: Event_284: system.switch_cpus2 progress event, total committed:386908575, progress insts committed: 53134944, IPC: 05.30818
15677923785288: Event_285: system.switch_cpus3 progress event, total committed:297315394, progress insts committed: 38558593, IPC: 0003.852
Exiting @ tick 15680196504936 because a thread reached the max instruction count
