Command line:
./runscript_pride.sh mix12 RFM1.BR2.4C 4 2017 --rh_defense --rh_mitigation=RFM --rh_rfm_per_trefi=1 --rh_rfm_blast_radius=2 --rh_rfm_maxacts_per_trefi=79
Global frequency set at 1000000000000 ticks per second
RFM details - rfm_act_threshold: 79, blast_radius: 2, delay_per_rfm: 175000 ps. sample_rate: 0.012500
RH Defense config: RFM, Bus Delay: 0, rfms_per_trefi: 1, rfm_act_threshold: 79, blast_radius: 2,rfm_delay_per_act: 45000 ps.
DRAM config: RowsPerBank: 65536, BanksPerRank: 32, RanksPerChannel: 1
warn: Sockets disabled, not accepting gdb connections
warn: CoherentXBar system.cpu0.mmucache.mmubus has no snooping ports attached!
warn: CoherentXBar system.cpu1.mmucache.mmubus has no snooping ports attached!
warn: CoherentXBar system.cpu2.mmucache.mmubus has no snooping ports attached!
warn: CoherentXBar system.cpu3.mmucache.mmubus has no snooping ports attached!
warn: Checkpoints for file descriptors currently do not work.
warn: Checkpoints for file descriptors currently do not work.
warn: Checkpoints for file descriptors currently do not work.
warn: Checkpoints for file descriptors currently do not work.
gem5 Simulator System.  http://gem5.org
gem5 is copyrighted software; use the --copyright option for details.

gem5 version 20.1.0.5
gem5 compiled Jul 12 2024 12:42:38
gem5 started Jul 22 2024 14:24:34
gem5 executing on a07dda8b130c, pid 88114
command line: /home/user/PrIDE/performance/gem5/build/X86/gem5.opt --outdir=/home/user/PrIDE/performance/gem5/stats/pride_multiprogram_16GBmem_250Mn.SPEC2017.C4/RFM1.BR2.4C/mix12 /home/user/PrIDE/performance/gem5/configs/example/se_rq_spec_config_multicore.py --redirects /lib64=/home/utils/gcc-6.2.0/lib64 --benchmark=mix12 --benchmark_stdout=/home/user/PrIDE/performance/gem5/stats/pride_multiprogram_16GBmem_250Mn.SPEC2017.C4/RFM1.BR2.4C/mix12/mix12.out --benchmark_stderr=/home/user/PrIDE/performance/gem5/stats/pride_multiprogram_16GBmem_250Mn.SPEC2017.C4/RFM1.BR2.4C/mix12/mix12.err --spec-version=2017 --rh_defense --rh_mitigation=RFM --rh_rfm_per_trefi=1 --rh_rfm_blast_radius=2 --rh_rfm_maxacts_per_trefi=79 --num-cpus=4 --mem-size=16GB --mem-type=DDR5_2400_32x4 --mem-ranks=1 --checkpoint-dir=/home/user/PrIDE/performance/gem5/cpts/multiprogram_16GBmem_25Bn.SPEC2017.C4/mix12-1-ref-x86 --checkpoint-restore=25000000000 --at-instruction --cpu-type DerivO3CPU --caches --l2cache --l1d_size=32kB --l1i_size=32kB --l2_size=256kB --l1d_assoc=8 --l1i_assoc=8 --l2_assoc=16 --maxinsts=250000000 --prog-interval=300Hz

info: Standard input is not a terminal, disabling listeners.
Benchmark- 0   roms
Selected benchmark
--> roms
CMD: ['/opt/spec2017/benchspec/CPU/554.roms_r/run/run_base_refrate_gem5_se-m64.0000/roms_r_base.gem5_se-m64']
CWD: /opt/spec2017/benchspec/CPU/554.roms_r/run/run_base_refrate_gem5_se-m64.0000/
Process stdout file: /home/user/PrIDE/performance/gem5/stats/pride_multiprogram_16GBmem_250Mn.SPEC2017.C4/RFM1.BR2.4C/mix12/mix12.out_0
Process stderr file: /home/user/PrIDE/performance/gem5/stats/pride_multiprogram_16GBmem_250Mn.SPEC2017.C4/RFM1.BR2.4C/mix12/mix12.err_0
Benchmark- 1   mcf
Selected benchmark
--> mcf
CMD: ['/opt/spec2017/benchspec/CPU/505.mcf_r/run/run_base_refrate_gem5_se-m64.0000/mcf_r_base.gem5_se-m64', '/opt/spec2017/benchspec/CPU/505.mcf_r/run/run_base_refrate_gem5_se-m64.0000/inp.in']
CWD: /opt/spec2017/benchspec/CPU/505.mcf_r/run/run_base_refrate_gem5_se-m64.0000/
Process stdout file: /home/user/PrIDE/performance/gem5/stats/pride_multiprogram_16GBmem_250Mn.SPEC2017.C4/RFM1.BR2.4C/mix12/mix12.out_1
Process stderr file: /home/user/PrIDE/performance/gem5/stats/pride_multiprogram_16GBmem_250Mn.SPEC2017.C4/RFM1.BR2.4C/mix12/mix12.err_1
Benchmark- 2   imagick
Selected benchmark
--> imagick
CMD: ['/opt/spec2017/benchspec/CPU/538.imagick_r/run/run_base_refrate_gem5_se-m64.0000/imagick_r_base.gem5_se-m64', '-limit', 'disk', '0', '/opt/spec2017/benchspec/CPU/538.imagick_r/run/run_base_refrate_gem5_se-m64.0000/refrate_input.tga', '-edge', '41', '-resample', '181%', '-emboss', '31', '-colorspace', 'YUV', '-mean-shift', '19x19+15%', '-resize', '30%', '/opt/spec2017/benchspec/CPU/538.imagick_r/run/run_base_refrate_gem5_se-m64.0000/refrate_output.tga']
CWD: /opt/spec2017/benchspec/CPU/538.imagick_r/run/run_base_refrate_gem5_se-m64.0000/
Process stdout file: /home/user/PrIDE/performance/gem5/stats/pride_multiprogram_16GBmem_250Mn.SPEC2017.C4/RFM1.BR2.4C/mix12/mix12.out_2
Process stderr file: /home/user/PrIDE/performance/gem5/stats/pride_multiprogram_16GBmem_250Mn.SPEC2017.C4/RFM1.BR2.4C/mix12/mix12.err_2
Benchmark- 3   blender
Selected benchmark
--> blender
CMD: ['/opt/spec2017/benchspec/CPU/526.blender_r/run/run_base_refrate_gem5_se-m64.0000/blender_r_base.gem5_se-m64', '/opt/spec2017/benchspec/CPU/526.blender_r/run/run_base_refrate_gem5_se-m64.0000/sh3_no_char.blend', '--render-output', 'sh3_no_char_', '--threads', '1', '-b', '-F', 'RAWTGA', '-s', '849', '-e', '849', '-a']
CWD: /opt/spec2017/benchspec/CPU/526.blender_r/run/run_base_refrate_gem5_se-m64.0000/
Process stdout file: /home/user/PrIDE/performance/gem5/stats/pride_multiprogram_16GBmem_250Mn.SPEC2017.C4/RFM1.BR2.4C/mix12/mix12.out_3
Process stderr file: /home/user/PrIDE/performance/gem5/stats/pride_multiprogram_16GBmem_250Mn.SPEC2017.C4/RFM1.BR2.4C/mix12/mix12.err_3
Workload-0: 
['/opt/spec2017/benchspec/CPU/554.roms_r/run/run_base_refrate_gem5_se-m64.0000/roms_r_base.gem5_se-m64']
Workload-1: 
['/opt/spec2017/benchspec/CPU/505.mcf_r/run/run_base_refrate_gem5_se-m64.0000/mcf_r_base.gem5_se-m64', '/opt/spec2017/benchspec/CPU/505.mcf_r/run/run_base_refrate_gem5_se-m64.0000/inp.in']
Workload-2: 
['/opt/spec2017/benchspec/CPU/538.imagick_r/run/run_base_refrate_gem5_se-m64.0000/imagick_r_base.gem5_se-m64', '-limit', 'disk', '0', '/opt/spec2017/benchspec/CPU/538.imagick_r/run/run_base_refrate_gem5_se-m64.0000/refrate_input.tga', '-edge', '41', '-resample', '181%', '-emboss', '31', '-colorspace', 'YUV', '-mean-shift', '19x19+15%', '-resize', '30%', '/opt/spec2017/benchspec/CPU/538.imagick_r/run/run_base_refrate_gem5_se-m64.0000/refrate_output.tga']
Workload-3: 
['/opt/spec2017/benchspec/CPU/526.blender_r/run/run_base_refrate_gem5_se-m64.0000/blender_r_base.gem5_se-m64', '/opt/spec2017/benchspec/CPU/526.blender_r/run/run_base_refrate_gem5_se-m64.0000/sh3_no_char.blend', '--render-output', 'sh3_no_char_', '--threads', '1', '-b', '-F', 'RAWTGA', '-s', '849', '-e', '849', '-a']
defense_enable:  True  detector:  MG  mitigation:  RFM  threshold:  800
mg_entries:  1700
rfm_maxacts_per_trefi:  79 rfm_per_trefi:  1 rfm_blast_radius:  2
Switch at curTick count:10000
warn: membus.master is deprecated. `master` is now called `mem_side_ports`
warn: No dot file generated. Please install pydot to generate the dot file and pdf.
info: Entering event queue @ 15651257077665.  Starting simulation...
info: Entering event queue @ 15651257087665.  Starting simulation...
warn: PowerState: Already in the requested power state, request ignored
Switched CPUS @ tick 15651257087665
switching cpus
**** REAL SIMULATION ****
info: Entering event queue @ 15651257088321.  Starting simulation...
15654590410998: Event_285: system.switch_cpus3 progress event, total committed:37367860, progress insts committed: 37367860, IPC: 03.73305
15654590410998: Event_284: system.switch_cpus2 progress event, total committed:51596310, progress insts committed: 51596310, IPC: 05.15447
15654590410998: Event_283: system.switch_cpus1 progress event, total committed:10891312, progress insts committed: 10891312, IPC: 01.08804
15654590410998: Event_282: system.switch_cpus0 progress event, total committed:8921980, progress insts committed: 8921980, IPC: 0.891306
warn: MOVNTDQ: Ignoring non-temporal hint, modeling as cacheable!
15657923744331: Event_282: system.switch_cpus0 progress event, total committed:18074006, progress insts committed: 9152026, IPC: 0.914287
15657923744331: Event_283: system.switch_cpus1 progress event, total committed:22488555, progress insts committed: 11597243, IPC: 01.15856
15657923744331: Event_284: system.switch_cpus2 progress event, total committed:97921628, progress insts committed: 46325318, IPC: 004.6279
15657923744331: Event_285: system.switch_cpus3 progress event, total committed:75323874, progress insts committed: 37956014, IPC: 03.79181
15661257077664: Event_285: system.switch_cpus3 progress event, total committed:113172265, progress insts committed: 37848391, IPC: 03.78105
15661257077664: Event_284: system.switch_cpus2 progress event, total committed:122225585, progress insts committed: 24303957, IPC: 02.42797
15661257077664: Event_283: system.switch_cpus1 progress event, total committed:33726174, progress insts committed: 11237619, IPC: 01.12264
15661257077664: Event_282: system.switch_cpus0 progress event, total committed:26780158, progress insts committed: 8706152, IPC: 0.869745
15664590410997: Event_282: system.switch_cpus0 progress event, total committed:36739579, progress insts committed: 9959421, IPC: 0.994946
15664590410997: Event_283: system.switch_cpus1 progress event, total committed:43438815, progress insts committed: 9712641, IPC: 0.970293
15664590410997: Event_284: system.switch_cpus2 progress event, total committed:175112649, progress insts committed: 52887064, IPC: 05.28342
15664590410997: Event_285: system.switch_cpus3 progress event, total committed:148956996, progress insts committed: 35784731, IPC: 03.57489
15667923744330: Event_285: system.switch_cpus3 progress event, total committed:184232863, progress insts committed: 35275867, IPC: 03.52406
15667923744330: Event_284: system.switch_cpus2 progress event, total committed:227968274, progress insts committed: 52855625, IPC: 05.28028
15667923744330: Event_283: system.switch_cpus1 progress event, total committed:53208987, progress insts committed: 9770172, IPC: 00.97604
15667923744330: Event_282: system.switch_cpus0 progress event, total committed:46073730, progress insts committed: 9334151, IPC: 0.932482
15671257077663: Event_282: system.switch_cpus0 progress event, total committed:57794754, progress insts committed: 11721024, IPC: 01.17093
15671257077663: Event_283: system.switch_cpus1 progress event, total committed:63643721, progress insts committed: 10434734, IPC: 01.04243
15671257077663: Event_284: system.switch_cpus2 progress event, total committed:280867796, progress insts committed: 52899522, IPC: 05.28466
15671257077663: Event_285: system.switch_cpus3 progress event, total committed:220470883, progress insts committed: 36238020, IPC: 03.62018
15674590410996: Event_285: system.switch_cpus3 progress event, total committed:258662296, progress insts committed: 38191413, IPC: 03.81532
15674590410996: Event_284: system.switch_cpus2 progress event, total committed:333979383, progress insts committed: 53111587, IPC: 05.30585
15674590410996: Event_283: system.switch_cpus1 progress event, total committed:74855647, progress insts committed: 11211926, IPC: 01.12007
15674590410996: Event_282: system.switch_cpus0 progress event, total committed:82108969, progress insts committed: 24314215, IPC: 02.42899
15677923744329: Event_282: system.switch_cpus0 progress event, total committed:106211865, progress insts committed: 24102896, IPC: 02.40788
15677923744329: Event_283: system.switch_cpus1 progress event, total committed:86730338, progress insts committed: 11874691, IPC: 01.18628
15677923744329: Event_284: system.switch_cpus2 progress event, total committed:387121107, progress insts committed: 53141724, IPC: 05.30886
15677923744329: Event_285: system.switch_cpus3 progress event, total committed:297172444, progress insts committed: 38510148, IPC: 03.84716
Exiting @ tick 15680183389065 because a thread reached the max instruction count
