Command line:
./runscript_pride.sh wrf AE.BASELINE.4C 4 2017
Global frequency set at 1000000000000 ticks per second
DRAM config: RowsPerBank: 65536, BanksPerRank: 32, RanksPerChannel: 1
warn: Sockets disabled, not accepting gdb connections
warn: CoherentXBar system.cpu0.mmucache.mmubus has no snooping ports attached!
warn: CoherentXBar system.cpu1.mmucache.mmubus has no snooping ports attached!
warn: CoherentXBar system.cpu2.mmucache.mmubus has no snooping ports attached!
warn: CoherentXBar system.cpu3.mmucache.mmubus has no snooping ports attached!
warn: Checkpoints for file descriptors currently do not work.
warn: Checkpoints for file descriptors currently do not work.
warn: Checkpoints for file descriptors currently do not work.
warn: Checkpoints for file descriptors currently do not work.
gem5 Simulator System.  http://gem5.org
gem5 is copyrighted software; use the --copyright option for details.

gem5 version 20.1.0.5
gem5 compiled Jul 12 2024 12:42:38
gem5 started Jul 31 2024 03:21:18
gem5 executing on a07dda8b130c, pid 225719
command line: /home/user/PrIDE/performance/gem5/build/X86/gem5.opt --outdir=/home/user/PrIDE/performance/gem5/stats/pride_multiprogram_16GBmem_250Mn.SPEC2017.C4/AE.BASELINE.4C/wrf /home/user/PrIDE/performance/gem5/configs/example/se_rq_spec_config_multicore.py --redirects /lib64=/home/utils/gcc-6.2.0/lib64 --benchmark=wrf --benchmark_stdout=/home/user/PrIDE/performance/gem5/stats/pride_multiprogram_16GBmem_250Mn.SPEC2017.C4/AE.BASELINE.4C/wrf/wrf.out --benchmark_stderr=/home/user/PrIDE/performance/gem5/stats/pride_multiprogram_16GBmem_250Mn.SPEC2017.C4/AE.BASELINE.4C/wrf/wrf.err --spec-version=2017 --num-cpus=4 --mem-size=16GB --mem-type=DDR5_2400_32x4 --mem-ranks=1 --mem-channels=1 --checkpoint-dir=/home/user/PrIDE/performance/gem5/cpts-DDR5/multiprogram_16GBmem_25Bn.SPEC2017.C4/wrf-1-ref-x86 --checkpoint-restore=25000000000 --at-instruction --cpu-type DerivO3CPU --caches --l2cache --l1d_size=32kB --l1i_size=32kB --l2_size=256kB --l3_size=4MB --l1d_assoc=8 --l1i_assoc=8 --l2_assoc=16 --l3_assoc=16 --cpu-clock=3GHz --sys-clock=3GHz --maxinsts=250000000 --prog-interval=300Hz

info: Standard input is not a terminal, disabling listeners.
Benchmark- 0   wrf
Selected benchmark
--> wrf
CMD: ['/opt/spec2017/benchspec/CPU/521.wrf_r/run/run_base_refrate_gem5_se-m64.0000/wrf_r_base.gem5_se-m64']
CWD: /opt/spec2017/benchspec/CPU/521.wrf_r/run/run_base_refrate_gem5_se-m64.0000/
Process stdout file: /home/user/PrIDE/performance/gem5/stats/pride_multiprogram_16GBmem_250Mn.SPEC2017.C4/AE.BASELINE.4C/wrf/wrf.out_0
Process stderr file: /home/user/PrIDE/performance/gem5/stats/pride_multiprogram_16GBmem_250Mn.SPEC2017.C4/AE.BASELINE.4C/wrf/wrf.err_0
Benchmark- 1   wrf
Selected benchmark
--> wrf
CMD: ['/opt/spec2017/benchspec/CPU/521.wrf_r/run/run_base_refrate_gem5_se-m64.0000/wrf_r_base.gem5_se-m64']
CWD: /opt/spec2017/benchspec/CPU/521.wrf_r/run/run_base_refrate_gem5_se-m64.0000/
Process stdout file: /home/user/PrIDE/performance/gem5/stats/pride_multiprogram_16GBmem_250Mn.SPEC2017.C4/AE.BASELINE.4C/wrf/wrf.out_1
Process stderr file: /home/user/PrIDE/performance/gem5/stats/pride_multiprogram_16GBmem_250Mn.SPEC2017.C4/AE.BASELINE.4C/wrf/wrf.err_1
Benchmark- 2   wrf
Selected benchmark
--> wrf
CMD: ['/opt/spec2017/benchspec/CPU/521.wrf_r/run/run_base_refrate_gem5_se-m64.0000/wrf_r_base.gem5_se-m64']
CWD: /opt/spec2017/benchspec/CPU/521.wrf_r/run/run_base_refrate_gem5_se-m64.0000/
Process stdout file: /home/user/PrIDE/performance/gem5/stats/pride_multiprogram_16GBmem_250Mn.SPEC2017.C4/AE.BASELINE.4C/wrf/wrf.out_2
Process stderr file: /home/user/PrIDE/performance/gem5/stats/pride_multiprogram_16GBmem_250Mn.SPEC2017.C4/AE.BASELINE.4C/wrf/wrf.err_2
Benchmark- 3   wrf
Selected benchmark
--> wrf
CMD: ['/opt/spec2017/benchspec/CPU/521.wrf_r/run/run_base_refrate_gem5_se-m64.0000/wrf_r_base.gem5_se-m64']
CWD: /opt/spec2017/benchspec/CPU/521.wrf_r/run/run_base_refrate_gem5_se-m64.0000/
Process stdout file: /home/user/PrIDE/performance/gem5/stats/pride_multiprogram_16GBmem_250Mn.SPEC2017.C4/AE.BASELINE.4C/wrf/wrf.out_3
Process stderr file: /home/user/PrIDE/performance/gem5/stats/pride_multiprogram_16GBmem_250Mn.SPEC2017.C4/AE.BASELINE.4C/wrf/wrf.err_3
Workload-0: 
['/opt/spec2017/benchspec/CPU/521.wrf_r/run/run_base_refrate_gem5_se-m64.0000/wrf_r_base.gem5_se-m64']
Workload-1: 
['/opt/spec2017/benchspec/CPU/521.wrf_r/run/run_base_refrate_gem5_se-m64.0000/wrf_r_base.gem5_se-m64']
Workload-2: 
['/opt/spec2017/benchspec/CPU/521.wrf_r/run/run_base_refrate_gem5_se-m64.0000/wrf_r_base.gem5_se-m64']
Workload-3: 
['/opt/spec2017/benchspec/CPU/521.wrf_r/run/run_base_refrate_gem5_se-m64.0000/wrf_r_base.gem5_se-m64']
defense_enable:  False  detector:  MG  mitigation:  RRS  threshold:  800
mg_entries:  1700
rrs_tuples:  3400 rrs_swap_delay:  2740ns rit_acc_delay:  1.25ns
Switch at curTick count:10000
warn: membus.master is deprecated. `master` is now called `mem_side_ports`
warn: No dot file generated. Please install pydot to generate the dot file and pdf.
info: Entering event queue @ 18146314377144.  Starting simulation...
info: Entering event queue @ 18146314387144.  Starting simulation...
warn: PowerState: Already in the requested power state, request ignored
Switched CPUS @ tick 18146314387144
switching cpus
**** REAL SIMULATION ****
info: Entering event queue @ 18146314387467.  Starting simulation...
warn: MOVNTDQ: Ignoring non-temporal hint, modeling as cacheable!
18149647710477: Event_285: system.switch_cpus3 progress event, total committed:27392483, progress insts committed: 27392483, IPC: 02.73651
18149647710477: Event_284: system.switch_cpus2 progress event, total committed:27384505, progress insts committed: 27384505, IPC: 02.73571
18149647710477: Event_283: system.switch_cpus1 progress event, total committed:27345481, progress insts committed: 27345481, IPC: 02.73181
18149647710477: Event_282: system.switch_cpus0 progress event, total committed:27377310, progress insts committed: 27377310, IPC: 02.73499
18152981043810: Event_282: system.switch_cpus0 progress event, total committed:59635834, progress insts committed: 32258524, IPC: 03.22263
18152981043810: Event_283: system.switch_cpus1 progress event, total committed:59523263, progress insts committed: 32177782, IPC: 03.21456
18152981043810: Event_284: system.switch_cpus2 progress event, total committed:59728100, progress insts committed: 32343595, IPC: 03.23113
18152981043810: Event_285: system.switch_cpus3 progress event, total committed:59777428, progress insts committed: 32384945, IPC: 03.23526
18156314377143: Event_285: system.switch_cpus3 progress event, total committed:90983057, progress insts committed: 31205629, IPC: 03.11744
18156314377143: Event_284: system.switch_cpus2 progress event, total committed:90917985, progress insts committed: 31189885, IPC: 03.11587
18156314377143: Event_283: system.switch_cpus1 progress event, total committed:90544557, progress insts committed: 31021294, IPC: 03.09903
18156314377143: Event_282: system.switch_cpus0 progress event, total committed:90767008, progress insts committed: 31131174, IPC: 00003.11
18159647710476: Event_282: system.switch_cpus0 progress event, total committed:123442118, progress insts committed: 32675110, IPC: 03.26424
18159647710476: Event_283: system.switch_cpus1 progress event, total committed:123187328, progress insts committed: 32642771, IPC: 03.26101
18159647710476: Event_284: system.switch_cpus2 progress event, total committed:123699749, progress insts committed: 32781764, IPC: 003.2749
18159647710476: Event_285: system.switch_cpus3 progress event, total committed:123866990, progress insts committed: 32883933, IPC: 003.2851
18162981043809: Event_285: system.switch_cpus3 progress event, total committed:154936056, progress insts committed: 31069066, IPC: 003.1038
18162981043809: Event_284: system.switch_cpus2 progress event, total committed:154690028, progress insts committed: 30990279, IPC: 03.09593
18162981043809: Event_283: system.switch_cpus1 progress event, total committed:154355907, progress insts committed: 31168579, IPC: 03.11374
18162981043809: Event_282: system.switch_cpus0 progress event, total committed:154532158, progress insts committed: 31090040, IPC: 03.10589
18166314377142: Event_282: system.switch_cpus0 progress event, total committed:187623347, progress insts committed: 33091189, IPC: 03.30581
18166314377142: Event_283: system.switch_cpus1 progress event, total committed:187373669, progress insts committed: 33017762, IPC: 03.29847
18166314377142: Event_284: system.switch_cpus2 progress event, total committed:188069011, progress insts committed: 33378983, IPC: 03.33456
18166314377142: Event_285: system.switch_cpus3 progress event, total committed:188308629, progress insts committed: 33372573, IPC: 03.33392
18169647710475: Event_285: system.switch_cpus3 progress event, total committed:220478909, progress insts committed: 32170280, IPC: 03.21381
18169647710475: Event_284: system.switch_cpus2 progress event, total committed:220176738, progress insts committed: 32107727, IPC: 03.20756
18169647710475: Event_283: system.switch_cpus1 progress event, total committed:219612086, progress insts committed: 32238417, IPC: 03.22062
18169647710475: Event_282: system.switch_cpus0 progress event, total committed:219676279, progress insts committed: 32052932, IPC: 03.20209
18172981043808: Event_282: system.switch_cpus0 progress event, total committed:251797097, progress insts committed: 32120818, IPC: 03.20887
18172981043808: Event_283: system.switch_cpus1 progress event, total committed:251561654, progress insts committed: 31949568, IPC: 03.19176
18172981043808: Event_284: system.switch_cpus2 progress event, total committed:252712287, progress insts committed: 32535549, IPC: 003.2503
18172981043808: Event_285: system.switch_cpus3 progress event, total committed:253271464, progress insts committed: 32792555, IPC: 03.27598
18176314377141: Event_285: system.switch_cpus3 progress event, total committed:285423309, progress insts committed: 32151845, IPC: 03.21197
18176314377141: Event_284: system.switch_cpus2 progress event, total committed:285105378, progress insts committed: 32393091, IPC: 03.23607
18176314377141: Event_283: system.switch_cpus1 progress event, total committed:284214599, progress insts committed: 32652945, IPC: 03.26203
18176314377141: Event_282: system.switch_cpus0 progress event, total committed:284570049, progress insts committed: 32772952, IPC: 03.27402
18179647710474: Event_282: system.switch_cpus0 progress event, total committed:315887577, progress insts committed: 31317528, IPC: 03.12862
18179647710474: Event_283: system.switch_cpus1 progress event, total committed:315369086, progress insts committed: 31154487, IPC: 03.11233
18179647710474: Event_284: system.switch_cpus2 progress event, total committed:317305742, progress insts committed: 32200364, IPC: 03.21682
18179647710474: Event_285: system.switch_cpus3 progress event, total committed:318015828, progress insts committed: 32592519, IPC: 03.25599
18182981043807: Event_285: system.switch_cpus3 progress event, total committed:350647428, progress insts committed: 32631600, IPC: 003.2599
18182981043807: Event_284: system.switch_cpus2 progress event, total committed:350410136, progress insts committed: 33104394, IPC: 03.30713
18182981043807: Event_283: system.switch_cpus1 progress event, total committed:348408259, progress insts committed: 33039173, IPC: 03.30061
18182981043807: Event_282: system.switch_cpus0 progress event, total committed:348843119, progress insts committed: 32955542, IPC: 03.29226
18186314377140: Event_282: system.switch_cpus0 progress event, total committed:380396326, progress insts committed: 31553207, IPC: 03.15217
18186314377140: Event_283: system.switch_cpus1 progress event, total committed:380267387, progress insts committed: 31859128, IPC: 03.18273
18186314377140: Event_284: system.switch_cpus2 progress event, total committed:382029732, progress insts committed: 31619596, IPC: 003.1588
18186314377140: Event_285: system.switch_cpus3 progress event, total committed:383182611, progress insts committed: 32535183, IPC: 03.25026
18189647710473: Event_285: system.switch_cpus3 progress event, total committed:416123375, progress insts committed: 32940764, IPC: 03.29078
18189647710473: Event_284: system.switch_cpus2 progress event, total committed:415224245, progress insts committed: 33194513, IPC: 03.31613
18189647710473: Event_283: system.switch_cpus1 progress event, total committed:413121136, progress insts committed: 32853749, IPC: 03.28209
18189647710473: Event_282: system.switch_cpus0 progress event, total committed:413369645, progress insts committed: 32973319, IPC: 03.29403
18192981043806: Event_282: system.switch_cpus0 progress event, total committed:430385120, progress insts committed: 17015475, IPC: 01.69985
18192981043806: Event_283: system.switch_cpus1 progress event, total committed:430345268, progress insts committed: 17224132, IPC: 01.72069
18192981043806: Event_284: system.switch_cpus2 progress event, total committed:430761685, progress insts committed: 15537440, IPC: 01.55219
18192981043806: Event_285: system.switch_cpus3 progress event, total committed:430991044, progress insts committed: 14867669, IPC: 01.48528
18196314377139: Event_285: system.switch_cpus3 progress event, total committed:441273449, progress insts committed: 10282405, IPC: 01.02721
18196314377139: Event_284: system.switch_cpus2 progress event, total committed:440508530, progress insts committed: 9746845, IPC: 00.97371
18196314377139: Event_283: system.switch_cpus1 progress event, total committed:439286525, progress insts committed: 8941257, IPC: 0.893232
18196314377139: Event_282: system.switch_cpus0 progress event, total committed:439400447, progress insts committed: 9015327, IPC: 0.900631
18199647710472: Event_282: system.switch_cpus0 progress event, total committed:454804832, progress insts committed: 15404385, IPC: 001.5389
18199647710472: Event_283: system.switch_cpus1 progress event, total committed:454792140, progress insts committed: 15505615, IPC: 01.54901
18199647710472: Event_284: system.switch_cpus2 progress event, total committed:454949080, progress insts committed: 14440550, IPC: 01.44261
18199647710472: Event_285: system.switch_cpus3 progress event, total committed:455036240, progress insts committed: 13762791, IPC: 001.3749
18202981043805: Event_285: system.switch_cpus3 progress event, total committed:456027647, progress insts committed: 991407, IPC: 0.0990416
18202981043805: Event_284: system.switch_cpus2 progress event, total committed:455957839, progress insts committed: 1008759, IPC: 0.100775
18202981043805: Event_283: system.switch_cpus1 progress event, total committed:455770567, progress insts committed: 978427, IPC: 0.0977449
18202981043805: Event_282: system.switch_cpus0 progress event, total committed:455811295, progress insts committed: 1006463, IPC: 0.100546
Exiting @ tick 18204249972222 because a thread reached the max instruction count
