
---------- Begin Simulation Statistics ----------
final_tick                               18204249972222                       # Number of ticks from beginning of simulation (restored from checkpoints and never reset)
host_inst_rate                                 177508                       # Simulator instruction rate (inst/s)
host_mem_usage                               17498824                       # Number of bytes of host memory used
host_op_rate                                   324089                       # Simulator op (including micro ops) rate (op/s)
host_seconds                                  5631.79                       # Real time elapsed on the host
host_tick_rate                               10287245                       # Simulator tick rate (ticks/s)
sim_freq                                 1000000000000                       # Frequency of simulated ticks
sim_insts                                   999686067                       # Number of instructions simulated
sim_ops                                    1825200396                       # Number of ops (including micro ops) simulated
sim_seconds                                  0.057936                       # Number of seconds simulated
sim_ticks                                 57935595078                       # Number of ticks simulated
system.cpu0.Branches                                1                       # Number of branches fetched
system.cpu0.committedInsts                         15                       # Number of instructions committed
system.cpu0.committedOps                           26                       # Number of ops (including micro ops) committed
system.cpu0.idle_fraction                           0                       # Percentage of idle cycles
system.cpu0.l2bus.snoop_filter.hit_multi_requests          258                       # Number of requests hitting in the snoop filter with multiple (>1) holders of the requested data.
system.cpu0.l2bus.snoop_filter.hit_multi_snoops            0                       # Number of snoops hitting in the snoop filter with multiple (>1) holders of the requested data.
system.cpu0.l2bus.snoop_filter.hit_single_requests      1777575                       # Number of requests hitting in the snoop filter with a single holder of the requested data.
system.cpu0.l2bus.snoop_filter.hit_single_snoops        24507                       # Number of snoops hitting in the snoop filter with a single holder of the requested data.
system.cpu0.l2bus.snoop_filter.tot_requests      3443901                       # Total number of requests made to the snoop filter.
system.cpu0.l2bus.snoop_filter.tot_snoops        24507                       # Total number of snoops made to the snoop filter.
system.cpu0.mmucache.mmubus.snoop_filter.hit_multi_requests            0                       # Number of requests hitting in the snoop filter with multiple (>1) holders of the requested data.
system.cpu0.mmucache.mmubus.snoop_filter.hit_multi_snoops            0                       # Number of snoops hitting in the snoop filter with multiple (>1) holders of the requested data.
system.cpu0.mmucache.mmubus.snoop_filter.hit_single_requests            0                       # Number of requests hitting in the snoop filter with a single holder of the requested data.
system.cpu0.mmucache.mmubus.snoop_filter.hit_single_snoops            0                       # Number of snoops hitting in the snoop filter with a single holder of the requested data.
system.cpu0.mmucache.mmubus.snoop_filter.tot_requests            0                       # Total number of requests made to the snoop filter.
system.cpu0.mmucache.mmubus.snoop_filter.tot_snoops            0                       # Total number of snoops made to the snoop filter.
system.cpu0.not_idle_fraction                       1                       # Percentage of non-idle cycles
system.cpu0.numCycles                              31                       # number of cpu cycles simulated
system.cpu0.numWorkItemsCompleted                   0                       # number of work items this cpu completed
system.cpu0.numWorkItemsStarted                     0                       # number of work items this cpu started
system.cpu0.num_busy_cycles                        31                       # Number of busy cycles
system.cpu0.num_cc_register_reads                   9                       # number of times the CC registers were read
system.cpu0.num_cc_register_writes                  6                       # number of times the CC registers were written
system.cpu0.num_conditional_control_insts            1                       # number of instructions that are conditional controls
system.cpu0.num_fp_alu_accesses                    19                       # Number of float alu accesses
system.cpu0.num_fp_insts                           19                       # number of float instructions
system.cpu0.num_fp_register_reads                  25                       # number of times the floating registers were read
system.cpu0.num_fp_register_writes                 17                       # number of times the floating registers were written
system.cpu0.num_func_calls                          0                       # number of times a function call or return occured
system.cpu0.num_idle_cycles                         0                       # Number of idle cycles
system.cpu0.num_int_alu_accesses                   13                       # Number of integer alu accesses
system.cpu0.num_int_insts                          13                       # number of integer instructions
system.cpu0.num_int_register_reads                 29                       # number of times the integer registers were read
system.cpu0.num_int_register_writes                 6                       # number of times the integer registers were written
system.cpu0.num_load_insts                          5                       # Number of load instructions
system.cpu0.num_mem_refs                            6                       # number of memory refs
system.cpu0.num_store_insts                         1                       # Number of store instructions
system.cpu0.num_vec_alu_accesses                    0                       # Number of vector alu accesses
system.cpu0.num_vec_insts                           0                       # number of vector instructions
system.cpu0.num_vec_register_reads                  0                       # number of times the vector registers were read
system.cpu0.num_vec_register_writes                 0                       # number of times the vector registers were written
system.cpu0.op_class::No_OpClass                    0      0.00%      0.00% # Class of executed instruction
system.cpu0.op_class::IntAlu                        7     26.92%     26.92% # Class of executed instruction
system.cpu0.op_class::IntMult                       0      0.00%     26.92% # Class of executed instruction
system.cpu0.op_class::IntDiv                        0      0.00%     26.92% # Class of executed instruction
system.cpu0.op_class::FloatAdd                      4     15.38%     42.31% # Class of executed instruction
system.cpu0.op_class::FloatCmp                      0      0.00%     42.31% # Class of executed instruction
system.cpu0.op_class::FloatCvt                      0      0.00%     42.31% # Class of executed instruction
system.cpu0.op_class::FloatMult                     0      0.00%     42.31% # Class of executed instruction
system.cpu0.op_class::FloatMultAcc                  0      0.00%     42.31% # Class of executed instruction
system.cpu0.op_class::FloatDiv                      0      0.00%     42.31% # Class of executed instruction
system.cpu0.op_class::FloatMisc                     0      0.00%     42.31% # Class of executed instruction
system.cpu0.op_class::FloatSqrt                     0      0.00%     42.31% # Class of executed instruction
system.cpu0.op_class::SimdAdd                       0      0.00%     42.31% # Class of executed instruction
system.cpu0.op_class::SimdAddAcc                    0      0.00%     42.31% # Class of executed instruction
system.cpu0.op_class::SimdAlu                       2      7.69%     50.00% # Class of executed instruction
system.cpu0.op_class::SimdCmp                       0      0.00%     50.00% # Class of executed instruction
system.cpu0.op_class::SimdCvt                       0      0.00%     50.00% # Class of executed instruction
system.cpu0.op_class::SimdMisc                      0      0.00%     50.00% # Class of executed instruction
system.cpu0.op_class::SimdMult                      0      0.00%     50.00% # Class of executed instruction
system.cpu0.op_class::SimdMultAcc                   0      0.00%     50.00% # Class of executed instruction
system.cpu0.op_class::SimdShift                     0      0.00%     50.00% # Class of executed instruction
system.cpu0.op_class::SimdShiftAcc                  0      0.00%     50.00% # Class of executed instruction
system.cpu0.op_class::SimdDiv                       0      0.00%     50.00% # Class of executed instruction
system.cpu0.op_class::SimdSqrt                      0      0.00%     50.00% # Class of executed instruction
system.cpu0.op_class::SimdFloatAdd                  3     11.54%     61.54% # Class of executed instruction
system.cpu0.op_class::SimdFloatAlu                  0      0.00%     61.54% # Class of executed instruction
system.cpu0.op_class::SimdFloatCmp                  0      0.00%     61.54% # Class of executed instruction
system.cpu0.op_class::SimdFloatCvt                  1      3.85%     65.38% # Class of executed instruction
system.cpu0.op_class::SimdFloatDiv                  1      3.85%     69.23% # Class of executed instruction
system.cpu0.op_class::SimdFloatMisc                 0      0.00%     69.23% # Class of executed instruction
system.cpu0.op_class::SimdFloatMult                 2      7.69%     76.92% # Class of executed instruction
system.cpu0.op_class::SimdFloatMultAcc              0      0.00%     76.92% # Class of executed instruction
system.cpu0.op_class::SimdFloatSqrt                 0      0.00%     76.92% # Class of executed instruction
system.cpu0.op_class::SimdReduceAdd                 0      0.00%     76.92% # Class of executed instruction
system.cpu0.op_class::SimdReduceAlu                 0      0.00%     76.92% # Class of executed instruction
system.cpu0.op_class::SimdReduceCmp                 0      0.00%     76.92% # Class of executed instruction
system.cpu0.op_class::SimdFloatReduceAdd            0      0.00%     76.92% # Class of executed instruction
system.cpu0.op_class::SimdFloatReduceCmp            0      0.00%     76.92% # Class of executed instruction
system.cpu0.op_class::SimdAes                       0      0.00%     76.92% # Class of executed instruction
system.cpu0.op_class::SimdAesMix                    0      0.00%     76.92% # Class of executed instruction
system.cpu0.op_class::SimdSha1Hash                  0      0.00%     76.92% # Class of executed instruction
system.cpu0.op_class::SimdSha1Hash2                 0      0.00%     76.92% # Class of executed instruction
system.cpu0.op_class::SimdSha256Hash                0      0.00%     76.92% # Class of executed instruction
system.cpu0.op_class::SimdSha256Hash2               0      0.00%     76.92% # Class of executed instruction
system.cpu0.op_class::SimdShaSigma2                 0      0.00%     76.92% # Class of executed instruction
system.cpu0.op_class::SimdShaSigma3                 0      0.00%     76.92% # Class of executed instruction
system.cpu0.op_class::SimdPredAlu                   0      0.00%     76.92% # Class of executed instruction
system.cpu0.op_class::MemRead                       0      0.00%     76.92% # Class of executed instruction
system.cpu0.op_class::MemWrite                      0      0.00%     76.92% # Class of executed instruction
system.cpu0.op_class::FloatMemRead                  5     19.23%     96.15% # Class of executed instruction
system.cpu0.op_class::FloatMemWrite                 1      3.85%    100.00% # Class of executed instruction
system.cpu0.op_class::IprAccess                     0      0.00%    100.00% # Class of executed instruction
system.cpu0.op_class::InstPrefetch                  0      0.00%    100.00% # Class of executed instruction
system.cpu0.op_class::total                        26                       # Class of executed instruction
system.cpu0.workload.numSyscalls                    0                       # Number of system calls
system.cpu1.Branches                                1                       # Number of branches fetched
system.cpu1.committedInsts                         15                       # Number of instructions committed
system.cpu1.committedOps                           26                       # Number of ops (including micro ops) committed
system.cpu1.idle_fraction                           0                       # Percentage of idle cycles
system.cpu1.l2bus.snoop_filter.hit_multi_requests          438                       # Number of requests hitting in the snoop filter with multiple (>1) holders of the requested data.
system.cpu1.l2bus.snoop_filter.hit_multi_snoops            0                       # Number of snoops hitting in the snoop filter with multiple (>1) holders of the requested data.
system.cpu1.l2bus.snoop_filter.hit_single_requests      1776948                       # Number of requests hitting in the snoop filter with a single holder of the requested data.
system.cpu1.l2bus.snoop_filter.hit_single_snoops        24619                       # Number of snoops hitting in the snoop filter with a single holder of the requested data.
system.cpu1.l2bus.snoop_filter.tot_requests      3442561                       # Total number of requests made to the snoop filter.
system.cpu1.l2bus.snoop_filter.tot_snoops        24619                       # Total number of snoops made to the snoop filter.
system.cpu1.mmucache.mmubus.snoop_filter.hit_multi_requests            0                       # Number of requests hitting in the snoop filter with multiple (>1) holders of the requested data.
system.cpu1.mmucache.mmubus.snoop_filter.hit_multi_snoops            0                       # Number of snoops hitting in the snoop filter with multiple (>1) holders of the requested data.
system.cpu1.mmucache.mmubus.snoop_filter.hit_single_requests            0                       # Number of requests hitting in the snoop filter with a single holder of the requested data.
system.cpu1.mmucache.mmubus.snoop_filter.hit_single_snoops            0                       # Number of snoops hitting in the snoop filter with a single holder of the requested data.
system.cpu1.mmucache.mmubus.snoop_filter.tot_requests            0                       # Total number of requests made to the snoop filter.
system.cpu1.mmucache.mmubus.snoop_filter.tot_snoops            0                       # Total number of snoops made to the snoop filter.
system.cpu1.not_idle_fraction                       1                       # Percentage of non-idle cycles
system.cpu1.numCycles                              31                       # number of cpu cycles simulated
system.cpu1.numWorkItemsCompleted                   0                       # number of work items this cpu completed
system.cpu1.numWorkItemsStarted                     0                       # number of work items this cpu started
system.cpu1.num_busy_cycles                        31                       # Number of busy cycles
system.cpu1.num_cc_register_reads                   9                       # number of times the CC registers were read
system.cpu1.num_cc_register_writes                  6                       # number of times the CC registers were written
system.cpu1.num_conditional_control_insts            1                       # number of instructions that are conditional controls
system.cpu1.num_fp_alu_accesses                    19                       # Number of float alu accesses
system.cpu1.num_fp_insts                           19                       # number of float instructions
system.cpu1.num_fp_register_reads                  25                       # number of times the floating registers were read
system.cpu1.num_fp_register_writes                 17                       # number of times the floating registers were written
system.cpu1.num_func_calls                          0                       # number of times a function call or return occured
system.cpu1.num_idle_cycles                         0                       # Number of idle cycles
system.cpu1.num_int_alu_accesses                   13                       # Number of integer alu accesses
system.cpu1.num_int_insts                          13                       # number of integer instructions
system.cpu1.num_int_register_reads                 29                       # number of times the integer registers were read
system.cpu1.num_int_register_writes                 6                       # number of times the integer registers were written
system.cpu1.num_load_insts                          5                       # Number of load instructions
system.cpu1.num_mem_refs                            6                       # number of memory refs
system.cpu1.num_store_insts                         1                       # Number of store instructions
system.cpu1.num_vec_alu_accesses                    0                       # Number of vector alu accesses
system.cpu1.num_vec_insts                           0                       # number of vector instructions
system.cpu1.num_vec_register_reads                  0                       # number of times the vector registers were read
system.cpu1.num_vec_register_writes                 0                       # number of times the vector registers were written
system.cpu1.op_class::No_OpClass                    0      0.00%      0.00% # Class of executed instruction
system.cpu1.op_class::IntAlu                        7     26.92%     26.92% # Class of executed instruction
system.cpu1.op_class::IntMult                       0      0.00%     26.92% # Class of executed instruction
system.cpu1.op_class::IntDiv                        0      0.00%     26.92% # Class of executed instruction
system.cpu1.op_class::FloatAdd                      4     15.38%     42.31% # Class of executed instruction
system.cpu1.op_class::FloatCmp                      0      0.00%     42.31% # Class of executed instruction
system.cpu1.op_class::FloatCvt                      0      0.00%     42.31% # Class of executed instruction
system.cpu1.op_class::FloatMult                     0      0.00%     42.31% # Class of executed instruction
system.cpu1.op_class::FloatMultAcc                  0      0.00%     42.31% # Class of executed instruction
system.cpu1.op_class::FloatDiv                      0      0.00%     42.31% # Class of executed instruction
system.cpu1.op_class::FloatMisc                     0      0.00%     42.31% # Class of executed instruction
system.cpu1.op_class::FloatSqrt                     0      0.00%     42.31% # Class of executed instruction
system.cpu1.op_class::SimdAdd                       0      0.00%     42.31% # Class of executed instruction
system.cpu1.op_class::SimdAddAcc                    0      0.00%     42.31% # Class of executed instruction
system.cpu1.op_class::SimdAlu                       2      7.69%     50.00% # Class of executed instruction
system.cpu1.op_class::SimdCmp                       0      0.00%     50.00% # Class of executed instruction
system.cpu1.op_class::SimdCvt                       0      0.00%     50.00% # Class of executed instruction
system.cpu1.op_class::SimdMisc                      0      0.00%     50.00% # Class of executed instruction
system.cpu1.op_class::SimdMult                      0      0.00%     50.00% # Class of executed instruction
system.cpu1.op_class::SimdMultAcc                   0      0.00%     50.00% # Class of executed instruction
system.cpu1.op_class::SimdShift                     0      0.00%     50.00% # Class of executed instruction
system.cpu1.op_class::SimdShiftAcc                  0      0.00%     50.00% # Class of executed instruction
system.cpu1.op_class::SimdDiv                       0      0.00%     50.00% # Class of executed instruction
system.cpu1.op_class::SimdSqrt                      0      0.00%     50.00% # Class of executed instruction
system.cpu1.op_class::SimdFloatAdd                  3     11.54%     61.54% # Class of executed instruction
system.cpu1.op_class::SimdFloatAlu                  0      0.00%     61.54% # Class of executed instruction
system.cpu1.op_class::SimdFloatCmp                  0      0.00%     61.54% # Class of executed instruction
system.cpu1.op_class::SimdFloatCvt                  1      3.85%     65.38% # Class of executed instruction
system.cpu1.op_class::SimdFloatDiv                  1      3.85%     69.23% # Class of executed instruction
system.cpu1.op_class::SimdFloatMisc                 0      0.00%     69.23% # Class of executed instruction
system.cpu1.op_class::SimdFloatMult                 2      7.69%     76.92% # Class of executed instruction
system.cpu1.op_class::SimdFloatMultAcc              0      0.00%     76.92% # Class of executed instruction
system.cpu1.op_class::SimdFloatSqrt                 0      0.00%     76.92% # Class of executed instruction
system.cpu1.op_class::SimdReduceAdd                 0      0.00%     76.92% # Class of executed instruction
system.cpu1.op_class::SimdReduceAlu                 0      0.00%     76.92% # Class of executed instruction
system.cpu1.op_class::SimdReduceCmp                 0      0.00%     76.92% # Class of executed instruction
system.cpu1.op_class::SimdFloatReduceAdd            0      0.00%     76.92% # Class of executed instruction
system.cpu1.op_class::SimdFloatReduceCmp            0      0.00%     76.92% # Class of executed instruction
system.cpu1.op_class::SimdAes                       0      0.00%     76.92% # Class of executed instruction
system.cpu1.op_class::SimdAesMix                    0      0.00%     76.92% # Class of executed instruction
system.cpu1.op_class::SimdSha1Hash                  0      0.00%     76.92% # Class of executed instruction
system.cpu1.op_class::SimdSha1Hash2                 0      0.00%     76.92% # Class of executed instruction
system.cpu1.op_class::SimdSha256Hash                0      0.00%     76.92% # Class of executed instruction
system.cpu1.op_class::SimdSha256Hash2               0      0.00%     76.92% # Class of executed instruction
system.cpu1.op_class::SimdShaSigma2                 0      0.00%     76.92% # Class of executed instruction
system.cpu1.op_class::SimdShaSigma3                 0      0.00%     76.92% # Class of executed instruction
system.cpu1.op_class::SimdPredAlu                   0      0.00%     76.92% # Class of executed instruction
system.cpu1.op_class::MemRead                       0      0.00%     76.92% # Class of executed instruction
system.cpu1.op_class::MemWrite                      0      0.00%     76.92% # Class of executed instruction
system.cpu1.op_class::FloatMemRead                  5     19.23%     96.15% # Class of executed instruction
system.cpu1.op_class::FloatMemWrite                 1      3.85%    100.00% # Class of executed instruction
system.cpu1.op_class::IprAccess                     0      0.00%    100.00% # Class of executed instruction
system.cpu1.op_class::InstPrefetch                  0      0.00%    100.00% # Class of executed instruction
system.cpu1.op_class::total                        26                       # Class of executed instruction
system.cpu1.workload.numSyscalls                    0                       # Number of system calls
system.cpu2.Branches                                1                       # Number of branches fetched
system.cpu2.committedInsts                         15                       # Number of instructions committed
system.cpu2.committedOps                           26                       # Number of ops (including micro ops) committed
system.cpu2.idle_fraction                           0                       # Percentage of idle cycles
system.cpu2.l2bus.snoop_filter.hit_multi_requests          286                       # Number of requests hitting in the snoop filter with multiple (>1) holders of the requested data.
system.cpu2.l2bus.snoop_filter.hit_multi_snoops            0                       # Number of snoops hitting in the snoop filter with multiple (>1) holders of the requested data.
system.cpu2.l2bus.snoop_filter.hit_single_requests      1784484                       # Number of requests hitting in the snoop filter with a single holder of the requested data.
system.cpu2.l2bus.snoop_filter.hit_single_snoops        22163                       # Number of snoops hitting in the snoop filter with a single holder of the requested data.
system.cpu2.l2bus.snoop_filter.tot_requests      3458340                       # Total number of requests made to the snoop filter.
system.cpu2.l2bus.snoop_filter.tot_snoops        22163                       # Total number of snoops made to the snoop filter.
system.cpu2.mmucache.mmubus.snoop_filter.hit_multi_requests            0                       # Number of requests hitting in the snoop filter with multiple (>1) holders of the requested data.
system.cpu2.mmucache.mmubus.snoop_filter.hit_multi_snoops            0                       # Number of snoops hitting in the snoop filter with multiple (>1) holders of the requested data.
system.cpu2.mmucache.mmubus.snoop_filter.hit_single_requests            0                       # Number of requests hitting in the snoop filter with a single holder of the requested data.
system.cpu2.mmucache.mmubus.snoop_filter.hit_single_snoops            0                       # Number of snoops hitting in the snoop filter with a single holder of the requested data.
system.cpu2.mmucache.mmubus.snoop_filter.tot_requests            0                       # Total number of requests made to the snoop filter.
system.cpu2.mmucache.mmubus.snoop_filter.tot_snoops            0                       # Total number of snoops made to the snoop filter.
system.cpu2.not_idle_fraction                       1                       # Percentage of non-idle cycles
system.cpu2.numCycles                              31                       # number of cpu cycles simulated
system.cpu2.numWorkItemsCompleted                   0                       # number of work items this cpu completed
system.cpu2.numWorkItemsStarted                     0                       # number of work items this cpu started
system.cpu2.num_busy_cycles                        31                       # Number of busy cycles
system.cpu2.num_cc_register_reads                   9                       # number of times the CC registers were read
system.cpu2.num_cc_register_writes                  6                       # number of times the CC registers were written
system.cpu2.num_conditional_control_insts            1                       # number of instructions that are conditional controls
system.cpu2.num_fp_alu_accesses                    19                       # Number of float alu accesses
system.cpu2.num_fp_insts                           19                       # number of float instructions
system.cpu2.num_fp_register_reads                  25                       # number of times the floating registers were read
system.cpu2.num_fp_register_writes                 17                       # number of times the floating registers were written
system.cpu2.num_func_calls                          0                       # number of times a function call or return occured
system.cpu2.num_idle_cycles                         0                       # Number of idle cycles
system.cpu2.num_int_alu_accesses                   13                       # Number of integer alu accesses
system.cpu2.num_int_insts                          13                       # number of integer instructions
system.cpu2.num_int_register_reads                 29                       # number of times the integer registers were read
system.cpu2.num_int_register_writes                 6                       # number of times the integer registers were written
system.cpu2.num_load_insts                          5                       # Number of load instructions
system.cpu2.num_mem_refs                            6                       # number of memory refs
system.cpu2.num_store_insts                         1                       # Number of store instructions
system.cpu2.num_vec_alu_accesses                    0                       # Number of vector alu accesses
system.cpu2.num_vec_insts                           0                       # number of vector instructions
system.cpu2.num_vec_register_reads                  0                       # number of times the vector registers were read
system.cpu2.num_vec_register_writes                 0                       # number of times the vector registers were written
system.cpu2.op_class::No_OpClass                    0      0.00%      0.00% # Class of executed instruction
system.cpu2.op_class::IntAlu                        7     26.92%     26.92% # Class of executed instruction
system.cpu2.op_class::IntMult                       0      0.00%     26.92% # Class of executed instruction
system.cpu2.op_class::IntDiv                        0      0.00%     26.92% # Class of executed instruction
system.cpu2.op_class::FloatAdd                      4     15.38%     42.31% # Class of executed instruction
system.cpu2.op_class::FloatCmp                      0      0.00%     42.31% # Class of executed instruction
system.cpu2.op_class::FloatCvt                      0      0.00%     42.31% # Class of executed instruction
system.cpu2.op_class::FloatMult                     0      0.00%     42.31% # Class of executed instruction
system.cpu2.op_class::FloatMultAcc                  0      0.00%     42.31% # Class of executed instruction
system.cpu2.op_class::FloatDiv                      0      0.00%     42.31% # Class of executed instruction
system.cpu2.op_class::FloatMisc                     0      0.00%     42.31% # Class of executed instruction
system.cpu2.op_class::FloatSqrt                     0      0.00%     42.31% # Class of executed instruction
system.cpu2.op_class::SimdAdd                       0      0.00%     42.31% # Class of executed instruction
system.cpu2.op_class::SimdAddAcc                    0      0.00%     42.31% # Class of executed instruction
system.cpu2.op_class::SimdAlu                       2      7.69%     50.00% # Class of executed instruction
system.cpu2.op_class::SimdCmp                       0      0.00%     50.00% # Class of executed instruction
system.cpu2.op_class::SimdCvt                       0      0.00%     50.00% # Class of executed instruction
system.cpu2.op_class::SimdMisc                      0      0.00%     50.00% # Class of executed instruction
system.cpu2.op_class::SimdMult                      0      0.00%     50.00% # Class of executed instruction
system.cpu2.op_class::SimdMultAcc                   0      0.00%     50.00% # Class of executed instruction
system.cpu2.op_class::SimdShift                     0      0.00%     50.00% # Class of executed instruction
system.cpu2.op_class::SimdShiftAcc                  0      0.00%     50.00% # Class of executed instruction
system.cpu2.op_class::SimdDiv                       0      0.00%     50.00% # Class of executed instruction
system.cpu2.op_class::SimdSqrt                      0      0.00%     50.00% # Class of executed instruction
system.cpu2.op_class::SimdFloatAdd                  3     11.54%     61.54% # Class of executed instruction
system.cpu2.op_class::SimdFloatAlu                  0      0.00%     61.54% # Class of executed instruction
system.cpu2.op_class::SimdFloatCmp                  0      0.00%     61.54% # Class of executed instruction
system.cpu2.op_class::SimdFloatCvt                  1      3.85%     65.38% # Class of executed instruction
system.cpu2.op_class::SimdFloatDiv                  1      3.85%     69.23% # Class of executed instruction
system.cpu2.op_class::SimdFloatMisc                 0      0.00%     69.23% # Class of executed instruction
system.cpu2.op_class::SimdFloatMult                 2      7.69%     76.92% # Class of executed instruction
system.cpu2.op_class::SimdFloatMultAcc              0      0.00%     76.92% # Class of executed instruction
system.cpu2.op_class::SimdFloatSqrt                 0      0.00%     76.92% # Class of executed instruction
system.cpu2.op_class::SimdReduceAdd                 0      0.00%     76.92% # Class of executed instruction
system.cpu2.op_class::SimdReduceAlu                 0      0.00%     76.92% # Class of executed instruction
system.cpu2.op_class::SimdReduceCmp                 0      0.00%     76.92% # Class of executed instruction
system.cpu2.op_class::SimdFloatReduceAdd            0      0.00%     76.92% # Class of executed instruction
system.cpu2.op_class::SimdFloatReduceCmp            0      0.00%     76.92% # Class of executed instruction
system.cpu2.op_class::SimdAes                       0      0.00%     76.92% # Class of executed instruction
system.cpu2.op_class::SimdAesMix                    0      0.00%     76.92% # Class of executed instruction
system.cpu2.op_class::SimdSha1Hash                  0      0.00%     76.92% # Class of executed instruction
system.cpu2.op_class::SimdSha1Hash2                 0      0.00%     76.92% # Class of executed instruction
system.cpu2.op_class::SimdSha256Hash                0      0.00%     76.92% # Class of executed instruction
system.cpu2.op_class::SimdSha256Hash2               0      0.00%     76.92% # Class of executed instruction
system.cpu2.op_class::SimdShaSigma2                 0      0.00%     76.92% # Class of executed instruction
system.cpu2.op_class::SimdShaSigma3                 0      0.00%     76.92% # Class of executed instruction
system.cpu2.op_class::SimdPredAlu                   0      0.00%     76.92% # Class of executed instruction
system.cpu2.op_class::MemRead                       0      0.00%     76.92% # Class of executed instruction
system.cpu2.op_class::MemWrite                      0      0.00%     76.92% # Class of executed instruction
system.cpu2.op_class::FloatMemRead                  5     19.23%     96.15% # Class of executed instruction
system.cpu2.op_class::FloatMemWrite                 1      3.85%    100.00% # Class of executed instruction
system.cpu2.op_class::IprAccess                     0      0.00%    100.00% # Class of executed instruction
system.cpu2.op_class::InstPrefetch                  0      0.00%    100.00% # Class of executed instruction
system.cpu2.op_class::total                        26                       # Class of executed instruction
system.cpu2.workload.numSyscalls                    0                       # Number of system calls
system.cpu3.Branches                                1                       # Number of branches fetched
system.cpu3.committedInsts                         15                       # Number of instructions committed
system.cpu3.committedOps                           26                       # Number of ops (including micro ops) committed
system.cpu3.idle_fraction                           0                       # Percentage of idle cycles
system.cpu3.l2bus.snoop_filter.hit_multi_requests          433                       # Number of requests hitting in the snoop filter with multiple (>1) holders of the requested data.
system.cpu3.l2bus.snoop_filter.hit_multi_snoops            0                       # Number of snoops hitting in the snoop filter with multiple (>1) holders of the requested data.
system.cpu3.l2bus.snoop_filter.hit_single_requests      1789366                       # Number of requests hitting in the snoop filter with a single holder of the requested data.
system.cpu3.l2bus.snoop_filter.hit_single_snoops        21941                       # Number of snoops hitting in the snoop filter with a single holder of the requested data.
system.cpu3.l2bus.snoop_filter.tot_requests      3467083                       # Total number of requests made to the snoop filter.
system.cpu3.l2bus.snoop_filter.tot_snoops        21941                       # Total number of snoops made to the snoop filter.
system.cpu3.mmucache.mmubus.snoop_filter.hit_multi_requests            0                       # Number of requests hitting in the snoop filter with multiple (>1) holders of the requested data.
system.cpu3.mmucache.mmubus.snoop_filter.hit_multi_snoops            0                       # Number of snoops hitting in the snoop filter with multiple (>1) holders of the requested data.
system.cpu3.mmucache.mmubus.snoop_filter.hit_single_requests            0                       # Number of requests hitting in the snoop filter with a single holder of the requested data.
system.cpu3.mmucache.mmubus.snoop_filter.hit_single_snoops            0                       # Number of snoops hitting in the snoop filter with a single holder of the requested data.
system.cpu3.mmucache.mmubus.snoop_filter.tot_requests            0                       # Total number of requests made to the snoop filter.
system.cpu3.mmucache.mmubus.snoop_filter.tot_snoops            0                       # Total number of snoops made to the snoop filter.
system.cpu3.not_idle_fraction                       1                       # Percentage of non-idle cycles
system.cpu3.numCycles                              31                       # number of cpu cycles simulated
system.cpu3.numWorkItemsCompleted                   0                       # number of work items this cpu completed
system.cpu3.numWorkItemsStarted                     0                       # number of work items this cpu started
system.cpu3.num_busy_cycles                        31                       # Number of busy cycles
system.cpu3.num_cc_register_reads                   9                       # number of times the CC registers were read
system.cpu3.num_cc_register_writes                  6                       # number of times the CC registers were written
system.cpu3.num_conditional_control_insts            1                       # number of instructions that are conditional controls
system.cpu3.num_fp_alu_accesses                    19                       # Number of float alu accesses
system.cpu3.num_fp_insts                           19                       # number of float instructions
system.cpu3.num_fp_register_reads                  25                       # number of times the floating registers were read
system.cpu3.num_fp_register_writes                 17                       # number of times the floating registers were written
system.cpu3.num_func_calls                          0                       # number of times a function call or return occured
system.cpu3.num_idle_cycles                         0                       # Number of idle cycles
system.cpu3.num_int_alu_accesses                   13                       # Number of integer alu accesses
system.cpu3.num_int_insts                          13                       # number of integer instructions
system.cpu3.num_int_register_reads                 29                       # number of times the integer registers were read
system.cpu3.num_int_register_writes                 6                       # number of times the integer registers were written
system.cpu3.num_load_insts                          5                       # Number of load instructions
system.cpu3.num_mem_refs                            6                       # number of memory refs
system.cpu3.num_store_insts                         1                       # Number of store instructions
system.cpu3.num_vec_alu_accesses                    0                       # Number of vector alu accesses
system.cpu3.num_vec_insts                           0                       # number of vector instructions
system.cpu3.num_vec_register_reads                  0                       # number of times the vector registers were read
system.cpu3.num_vec_register_writes                 0                       # number of times the vector registers were written
system.cpu3.op_class::No_OpClass                    0      0.00%      0.00% # Class of executed instruction
system.cpu3.op_class::IntAlu                        7     26.92%     26.92% # Class of executed instruction
system.cpu3.op_class::IntMult                       0      0.00%     26.92% # Class of executed instruction
system.cpu3.op_class::IntDiv                        0      0.00%     26.92% # Class of executed instruction
system.cpu3.op_class::FloatAdd                      4     15.38%     42.31% # Class of executed instruction
system.cpu3.op_class::FloatCmp                      0      0.00%     42.31% # Class of executed instruction
system.cpu3.op_class::FloatCvt                      0      0.00%     42.31% # Class of executed instruction
system.cpu3.op_class::FloatMult                     0      0.00%     42.31% # Class of executed instruction
system.cpu3.op_class::FloatMultAcc                  0      0.00%     42.31% # Class of executed instruction
system.cpu3.op_class::FloatDiv                      0      0.00%     42.31% # Class of executed instruction
system.cpu3.op_class::FloatMisc                     0      0.00%     42.31% # Class of executed instruction
system.cpu3.op_class::FloatSqrt                     0      0.00%     42.31% # Class of executed instruction
system.cpu3.op_class::SimdAdd                       0      0.00%     42.31% # Class of executed instruction
system.cpu3.op_class::SimdAddAcc                    0      0.00%     42.31% # Class of executed instruction
system.cpu3.op_class::SimdAlu                       2      7.69%     50.00% # Class of executed instruction
system.cpu3.op_class::SimdCmp                       0      0.00%     50.00% # Class of executed instruction
system.cpu3.op_class::SimdCvt                       0      0.00%     50.00% # Class of executed instruction
system.cpu3.op_class::SimdMisc                      0      0.00%     50.00% # Class of executed instruction
system.cpu3.op_class::SimdMult                      0      0.00%     50.00% # Class of executed instruction
system.cpu3.op_class::SimdMultAcc                   0      0.00%     50.00% # Class of executed instruction
system.cpu3.op_class::SimdShift                     0      0.00%     50.00% # Class of executed instruction
system.cpu3.op_class::SimdShiftAcc                  0      0.00%     50.00% # Class of executed instruction
system.cpu3.op_class::SimdDiv                       0      0.00%     50.00% # Class of executed instruction
system.cpu3.op_class::SimdSqrt                      0      0.00%     50.00% # Class of executed instruction
system.cpu3.op_class::SimdFloatAdd                  3     11.54%     61.54% # Class of executed instruction
system.cpu3.op_class::SimdFloatAlu                  0      0.00%     61.54% # Class of executed instruction
system.cpu3.op_class::SimdFloatCmp                  0      0.00%     61.54% # Class of executed instruction
system.cpu3.op_class::SimdFloatCvt                  1      3.85%     65.38% # Class of executed instruction
system.cpu3.op_class::SimdFloatDiv                  1      3.85%     69.23% # Class of executed instruction
system.cpu3.op_class::SimdFloatMisc                 0      0.00%     69.23% # Class of executed instruction
system.cpu3.op_class::SimdFloatMult                 2      7.69%     76.92% # Class of executed instruction
system.cpu3.op_class::SimdFloatMultAcc              0      0.00%     76.92% # Class of executed instruction
system.cpu3.op_class::SimdFloatSqrt                 0      0.00%     76.92% # Class of executed instruction
system.cpu3.op_class::SimdReduceAdd                 0      0.00%     76.92% # Class of executed instruction
system.cpu3.op_class::SimdReduceAlu                 0      0.00%     76.92% # Class of executed instruction
system.cpu3.op_class::SimdReduceCmp                 0      0.00%     76.92% # Class of executed instruction
system.cpu3.op_class::SimdFloatReduceAdd            0      0.00%     76.92% # Class of executed instruction
system.cpu3.op_class::SimdFloatReduceCmp            0      0.00%     76.92% # Class of executed instruction
system.cpu3.op_class::SimdAes                       0      0.00%     76.92% # Class of executed instruction
system.cpu3.op_class::SimdAesMix                    0      0.00%     76.92% # Class of executed instruction
system.cpu3.op_class::SimdSha1Hash                  0      0.00%     76.92% # Class of executed instruction
system.cpu3.op_class::SimdSha1Hash2                 0      0.00%     76.92% # Class of executed instruction
system.cpu3.op_class::SimdSha256Hash                0      0.00%     76.92% # Class of executed instruction
system.cpu3.op_class::SimdSha256Hash2               0      0.00%     76.92% # Class of executed instruction
system.cpu3.op_class::SimdShaSigma2                 0      0.00%     76.92% # Class of executed instruction
system.cpu3.op_class::SimdShaSigma3                 0      0.00%     76.92% # Class of executed instruction
system.cpu3.op_class::SimdPredAlu                   0      0.00%     76.92% # Class of executed instruction
system.cpu3.op_class::MemRead                       0      0.00%     76.92% # Class of executed instruction
system.cpu3.op_class::MemWrite                      0      0.00%     76.92% # Class of executed instruction
system.cpu3.op_class::FloatMemRead                  5     19.23%     96.15% # Class of executed instruction
system.cpu3.op_class::FloatMemWrite                 1      3.85%    100.00% # Class of executed instruction
system.cpu3.op_class::IprAccess                     0      0.00%    100.00% # Class of executed instruction
system.cpu3.op_class::InstPrefetch                  0      0.00%    100.00% # Class of executed instruction
system.cpu3.op_class::total                        26                       # Class of executed instruction
system.cpu3.workload.numSyscalls                    0                       # Number of system calls
system.l3bus.snoop_filter.hit_multi_requests            0                       # Number of requests hitting in the snoop filter with multiple (>1) holders of the requested data.
system.l3bus.snoop_filter.hit_multi_snoops            0                       # Number of snoops hitting in the snoop filter with multiple (>1) holders of the requested data.
system.l3bus.snoop_filter.hit_single_requests      4733333                       # Number of requests hitting in the snoop filter with a single holder of the requested data.
system.l3bus.snoop_filter.hit_single_snoops            0                       # Number of snoops hitting in the snoop filter with a single holder of the requested data.
system.l3bus.snoop_filter.tot_requests        9484138                       # Total number of requests made to the snoop filter.
system.l3bus.snoop_filter.tot_snoops                0                       # Total number of snoops made to the snoop filter.
system.membus.snoop_filter.hit_multi_requests            0                       # Number of requests hitting in the snoop filter with multiple (>1) holders of the requested data.
system.membus.snoop_filter.hit_multi_snoops            0                       # Number of snoops hitting in the snoop filter with multiple (>1) holders of the requested data.
system.membus.snoop_filter.hit_single_requests       892282                       # Number of requests hitting in the snoop filter with a single holder of the requested data.
system.membus.snoop_filter.hit_single_snoops            0                       # Number of snoops hitting in the snoop filter with a single holder of the requested data.
system.membus.snoop_filter.tot_requests       1860726                       # Total number of requests made to the snoop filter.
system.membus.snoop_filter.tot_snoops               0                       # Total number of snoops made to the snoop filter.
system.switch_cpus0.cc_regfile_reads        193099682                       # number of cc regfile reads
system.switch_cpus0.cc_regfile_writes       110345573                       # number of cc regfile writes
system.switch_cpus0.committedInsts          249876715                       # Number of Instructions Simulated
system.switch_cpus0.committedOps            456223273                       # Number of Ops (including micro ops) Simulated
system.switch_cpus0.cpi                      0.696266                       # CPI: Cycles Per Instruction
system.switch_cpus0.cpi_total                0.696266                       # CPI: Total CPI of All Threads
system.switch_cpus0.fp_regfile_reads        309310139                       # number of floating regfile reads
system.switch_cpus0.fp_regfile_writes       225706428                       # number of floating regfile writes
system.switch_cpus0.idleCycles                 512129                       # Total number of cycles that the CPU has spent unscheduled due to idling
system.switch_cpus0.iew.branchMispredicts       619292                       # Number of branch mispredicts detected at execute
system.switch_cpus0.iew.exec_branches        34841516                       # Number of branches executed
system.switch_cpus0.iew.exec_nop                    0                       # number of nop insts executed
system.switch_cpus0.iew.exec_rate            2.821085                       # Inst execution rate
system.switch_cpus0.iew.exec_refs           107695808                       # number of memory reference insts executed
system.switch_cpus0.iew.exec_stores          30547566                       # Number of stores executed
system.switch_cpus0.iew.exec_swp                    0                       # number of swp insts executed
system.switch_cpus0.iew.iewBlockCycles       22400589                       # Number of cycles IEW is blocking
system.switch_cpus0.iew.iewDispLoadInsts     77031544                       # Number of dispatched load instructions
system.switch_cpus0.iew.iewDispNonSpecInsts         2131                       # Number of dispatched non-speculative instructions
system.switch_cpus0.iew.iewDispSquashedInsts        14159                       # Number of squashed instructions skipped by dispatch
system.switch_cpus0.iew.iewDispStoreInsts     32712700                       # Number of dispatched store instructions
system.switch_cpus0.iew.iewDispatchedInsts    500027077                       # Number of instructions dispatched to IQ
system.switch_cpus0.iew.iewExecLoadInsts     77148242                       # Number of load instructions executed
system.switch_cpus0.iew.iewExecSquashedInsts      2038761                       # Number of squashed instructions skipped in execute
system.switch_cpus0.iew.iewExecutedInsts    490814513                       # Number of executed instructions
system.switch_cpus0.iew.iewIQFullEvents        169972                       # Number of times the IQ has become full, causing a stall
system.switch_cpus0.iew.iewIdleCycles               0                       # Number of cycles IEW is idle
system.switch_cpus0.iew.iewLSQFullEvents      6613709                       # Number of times the LSQ has become full, causing a stall
system.switch_cpus0.iew.iewSquashCycles        724354                       # Number of cycles IEW is squashing
system.switch_cpus0.iew.iewUnblockCycles      6836519                       # Number of cycles IEW is unblocking
system.switch_cpus0.iew.memOrderViolationEvents        10870                       # Number of memory order violations
system.switch_cpus0.iew.predictedNotTakenIncorrect       226328                       # Number of branches that were predicted not taken incorrectly
system.switch_cpus0.iew.predictedTakenIncorrect       392964                       # Number of branches that were predicted taken incorrectly
system.switch_cpus0.iew.wb_consumers        536468547                       # num instructions consuming a value
system.switch_cpus0.iew.wb_count            487416134                       # cumulative count of insts written-back
system.switch_cpus0.iew.wb_fanout            0.600157                       # average fanout of values written-back
system.switch_cpus0.iew.wb_producers        321965178                       # num instructions producing a value
system.switch_cpus0.iew.wb_rate              2.801552                       # insts written-back per cycle
system.switch_cpus0.iew.wb_sent             489301842                       # cumulative count of insts sent to commit
system.switch_cpus0.int_regfile_reads       419850065                       # number of integer regfile reads
system.switch_cpus0.int_regfile_writes      182821232                       # number of integer regfile writes
system.switch_cpus0.ipc                      1.436232                       # IPC: Instructions Per Cycle
system.switch_cpus0.ipc_total                1.436232                       # IPC: Total IPC of All Threads
system.switch_cpus0.iq.FU_type_0::No_OpClass      1570763      0.32%      0.32% # Type of FU issued
system.switch_cpus0.iq.FU_type_0::IntAlu    222844693     45.22%     45.53% # Type of FU issued
system.switch_cpus0.iq.FU_type_0::IntMult        11443      0.00%     45.54% # Type of FU issued
system.switch_cpus0.iq.FU_type_0::IntDiv            0      0.00%     45.54% # Type of FU issued
system.switch_cpus0.iq.FU_type_0::FloatAdd     68828833     13.97%     59.50% # Type of FU issued
system.switch_cpus0.iq.FU_type_0::FloatCmp            0      0.00%     59.50% # Type of FU issued
system.switch_cpus0.iq.FU_type_0::FloatCvt            0      0.00%     59.50% # Type of FU issued
system.switch_cpus0.iq.FU_type_0::FloatMult            0      0.00%     59.50% # Type of FU issued
system.switch_cpus0.iq.FU_type_0::FloatMultAcc            0      0.00%     59.50% # Type of FU issued
system.switch_cpus0.iq.FU_type_0::FloatDiv            0      0.00%     59.50% # Type of FU issued
system.switch_cpus0.iq.FU_type_0::FloatMisc            0      0.00%     59.50% # Type of FU issued
system.switch_cpus0.iq.FU_type_0::FloatSqrt            0      0.00%     59.50% # Type of FU issued
system.switch_cpus0.iq.FU_type_0::SimdAdd            0      0.00%     59.50% # Type of FU issued
system.switch_cpus0.iq.FU_type_0::SimdAddAcc            0      0.00%     59.50% # Type of FU issued
system.switch_cpus0.iq.FU_type_0::SimdAlu      9242189      1.88%     61.38% # Type of FU issued
system.switch_cpus0.iq.FU_type_0::SimdCmp            0      0.00%     61.38% # Type of FU issued
system.switch_cpus0.iq.FU_type_0::SimdCvt            0      0.00%     61.38% # Type of FU issued
system.switch_cpus0.iq.FU_type_0::SimdMisc      5714956      1.16%     62.54% # Type of FU issued
system.switch_cpus0.iq.FU_type_0::SimdMult            0      0.00%     62.54% # Type of FU issued
system.switch_cpus0.iq.FU_type_0::SimdMultAcc            0      0.00%     62.54% # Type of FU issued
system.switch_cpus0.iq.FU_type_0::SimdShift            0      0.00%     62.54% # Type of FU issued
system.switch_cpus0.iq.FU_type_0::SimdShiftAcc            0      0.00%     62.54% # Type of FU issued
system.switch_cpus0.iq.FU_type_0::SimdDiv            0      0.00%     62.54% # Type of FU issued
system.switch_cpus0.iq.FU_type_0::SimdSqrt            0      0.00%     62.54% # Type of FU issued
system.switch_cpus0.iq.FU_type_0::SimdFloatAdd     23841687      4.84%     67.37% # Type of FU issued
system.switch_cpus0.iq.FU_type_0::SimdFloatAlu            0      0.00%     67.37% # Type of FU issued
system.switch_cpus0.iq.FU_type_0::SimdFloatCmp       652196      0.13%     67.51% # Type of FU issued
system.switch_cpus0.iq.FU_type_0::SimdFloatCvt     18089026      3.67%     71.18% # Type of FU issued
system.switch_cpus0.iq.FU_type_0::SimdFloatDiv      5720733      1.16%     72.34% # Type of FU issued
system.switch_cpus0.iq.FU_type_0::SimdFloatMisc            0      0.00%     72.34% # Type of FU issued
system.switch_cpus0.iq.FU_type_0::SimdFloatMult     27062155      5.49%     77.83% # Type of FU issued
system.switch_cpus0.iq.FU_type_0::SimdFloatMultAcc            0      0.00%     77.83% # Type of FU issued
system.switch_cpus0.iq.FU_type_0::SimdFloatSqrt      1016280      0.21%     78.03% # Type of FU issued
system.switch_cpus0.iq.FU_type_0::SimdReduceAdd            0      0.00%     78.03% # Type of FU issued
system.switch_cpus0.iq.FU_type_0::SimdReduceAlu            0      0.00%     78.03% # Type of FU issued
system.switch_cpus0.iq.FU_type_0::SimdReduceCmp            0      0.00%     78.03% # Type of FU issued
system.switch_cpus0.iq.FU_type_0::SimdFloatReduceAdd            0      0.00%     78.03% # Type of FU issued
system.switch_cpus0.iq.FU_type_0::SimdFloatReduceCmp            0      0.00%     78.03% # Type of FU issued
system.switch_cpus0.iq.FU_type_0::SimdAes            0      0.00%     78.03% # Type of FU issued
system.switch_cpus0.iq.FU_type_0::SimdAesMix            0      0.00%     78.03% # Type of FU issued
system.switch_cpus0.iq.FU_type_0::SimdSha1Hash            0      0.00%     78.03% # Type of FU issued
system.switch_cpus0.iq.FU_type_0::SimdSha1Hash2            0      0.00%     78.03% # Type of FU issued
system.switch_cpus0.iq.FU_type_0::SimdSha256Hash            0      0.00%     78.03% # Type of FU issued
system.switch_cpus0.iq.FU_type_0::SimdSha256Hash2            0      0.00%     78.03% # Type of FU issued
system.switch_cpus0.iq.FU_type_0::SimdShaSigma2            0      0.00%     78.03% # Type of FU issued
system.switch_cpus0.iq.FU_type_0::SimdShaSigma3            0      0.00%     78.03% # Type of FU issued
system.switch_cpus0.iq.FU_type_0::SimdPredAlu            0      0.00%     78.03% # Type of FU issued
system.switch_cpus0.iq.FU_type_0::MemRead     17034019      3.46%     81.49% # Type of FU issued
system.switch_cpus0.iq.FU_type_0::MemWrite      7987176      1.62%     83.11% # Type of FU issued
system.switch_cpus0.iq.FU_type_0::FloatMemRead     60556866     12.29%     95.40% # Type of FU issued
system.switch_cpus0.iq.FU_type_0::FloatMemWrite     22680259      4.60%    100.00% # Type of FU issued
system.switch_cpus0.iq.FU_type_0::IprAccess            0      0.00%    100.00% # Type of FU issued
system.switch_cpus0.iq.FU_type_0::InstPrefetch            0      0.00%    100.00% # Type of FU issued
system.switch_cpus0.iq.FU_type_0::total     492853274                       # Type of FU issued
system.switch_cpus0.iq.fp_alu_accesses      272153001                       # Number of floating point alu accesses
system.switch_cpus0.iq.fp_inst_queue_reads    541833369                       # Number of floating instruction queue reads
system.switch_cpus0.iq.fp_inst_queue_wakeup_accesses    266645545                       # Number of floating instruction queue wakeup accesses
system.switch_cpus0.iq.fp_inst_queue_writes    294671055                       # Number of floating instruction queue writes
system.switch_cpus0.iq.fu_busy_cnt            4770975                       # FU busy when requested
system.switch_cpus0.iq.fu_busy_rate          0.009680                       # FU busy rate (busy events/executed inst)
system.switch_cpus0.iq.fu_full::No_OpClass            0      0.00%      0.00% # attempts to use FU when none available
system.switch_cpus0.iq.fu_full::IntAlu        1328720     27.85%     27.85% # attempts to use FU when none available
system.switch_cpus0.iq.fu_full::IntMult             0      0.00%     27.85% # attempts to use FU when none available
system.switch_cpus0.iq.fu_full::IntDiv              0      0.00%     27.85% # attempts to use FU when none available
system.switch_cpus0.iq.fu_full::FloatAdd        94050      1.97%     29.82% # attempts to use FU when none available
system.switch_cpus0.iq.fu_full::FloatCmp            0      0.00%     29.82% # attempts to use FU when none available
system.switch_cpus0.iq.fu_full::FloatCvt            0      0.00%     29.82% # attempts to use FU when none available
system.switch_cpus0.iq.fu_full::FloatMult            0      0.00%     29.82% # attempts to use FU when none available
system.switch_cpus0.iq.fu_full::FloatMultAcc            0      0.00%     29.82% # attempts to use FU when none available
system.switch_cpus0.iq.fu_full::FloatDiv            0      0.00%     29.82% # attempts to use FU when none available
system.switch_cpus0.iq.fu_full::FloatMisc            0      0.00%     29.82% # attempts to use FU when none available
system.switch_cpus0.iq.fu_full::FloatSqrt            0      0.00%     29.82% # attempts to use FU when none available
system.switch_cpus0.iq.fu_full::SimdAdd             0      0.00%     29.82% # attempts to use FU when none available
system.switch_cpus0.iq.fu_full::SimdAddAcc            0      0.00%     29.82% # attempts to use FU when none available
system.switch_cpus0.iq.fu_full::SimdAlu        189940      3.98%     33.80% # attempts to use FU when none available
system.switch_cpus0.iq.fu_full::SimdCmp             0      0.00%     33.80% # attempts to use FU when none available
system.switch_cpus0.iq.fu_full::SimdCvt             0      0.00%     33.80% # attempts to use FU when none available
system.switch_cpus0.iq.fu_full::SimdMisc        26702      0.56%     34.36% # attempts to use FU when none available
system.switch_cpus0.iq.fu_full::SimdMult            0      0.00%     34.36% # attempts to use FU when none available
system.switch_cpus0.iq.fu_full::SimdMultAcc            0      0.00%     34.36% # attempts to use FU when none available
system.switch_cpus0.iq.fu_full::SimdShift            0      0.00%     34.36% # attempts to use FU when none available
system.switch_cpus0.iq.fu_full::SimdShiftAcc            0      0.00%     34.36% # attempts to use FU when none available
system.switch_cpus0.iq.fu_full::SimdDiv             0      0.00%     34.36% # attempts to use FU when none available
system.switch_cpus0.iq.fu_full::SimdSqrt            0      0.00%     34.36% # attempts to use FU when none available
system.switch_cpus0.iq.fu_full::SimdFloatAdd        89390      1.87%     36.24% # attempts to use FU when none available
system.switch_cpus0.iq.fu_full::SimdFloatAlu            0      0.00%     36.24% # attempts to use FU when none available
system.switch_cpus0.iq.fu_full::SimdFloatCmp            2      0.00%     36.24% # attempts to use FU when none available
system.switch_cpus0.iq.fu_full::SimdFloatCvt       141330      2.96%     39.20% # attempts to use FU when none available
system.switch_cpus0.iq.fu_full::SimdFloatDiv        14323      0.30%     39.50% # attempts to use FU when none available
system.switch_cpus0.iq.fu_full::SimdFloatMisc            0      0.00%     39.50% # attempts to use FU when none available
system.switch_cpus0.iq.fu_full::SimdFloatMult        96156      2.02%     41.51% # attempts to use FU when none available
system.switch_cpus0.iq.fu_full::SimdFloatMultAcc            0      0.00%     41.51% # attempts to use FU when none available
system.switch_cpus0.iq.fu_full::SimdFloatSqrt         1010      0.02%     41.53% # attempts to use FU when none available
system.switch_cpus0.iq.fu_full::SimdReduceAdd            0      0.00%     41.53% # attempts to use FU when none available
system.switch_cpus0.iq.fu_full::SimdReduceAlu            0      0.00%     41.53% # attempts to use FU when none available
system.switch_cpus0.iq.fu_full::SimdReduceCmp            0      0.00%     41.53% # attempts to use FU when none available
system.switch_cpus0.iq.fu_full::SimdFloatReduceAdd            0      0.00%     41.53% # attempts to use FU when none available
system.switch_cpus0.iq.fu_full::SimdFloatReduceCmp            0      0.00%     41.53% # attempts to use FU when none available
system.switch_cpus0.iq.fu_full::SimdAes             0      0.00%     41.53% # attempts to use FU when none available
system.switch_cpus0.iq.fu_full::SimdAesMix            0      0.00%     41.53% # attempts to use FU when none available
system.switch_cpus0.iq.fu_full::SimdSha1Hash            0      0.00%     41.53% # attempts to use FU when none available
system.switch_cpus0.iq.fu_full::SimdSha1Hash2            0      0.00%     41.53% # attempts to use FU when none available
system.switch_cpus0.iq.fu_full::SimdSha256Hash            0      0.00%     41.53% # attempts to use FU when none available
system.switch_cpus0.iq.fu_full::SimdSha256Hash2            0      0.00%     41.53% # attempts to use FU when none available
system.switch_cpus0.iq.fu_full::SimdShaSigma2            0      0.00%     41.53% # attempts to use FU when none available
system.switch_cpus0.iq.fu_full::SimdShaSigma3            0      0.00%     41.53% # attempts to use FU when none available
system.switch_cpus0.iq.fu_full::SimdPredAlu            0      0.00%     41.53% # attempts to use FU when none available
system.switch_cpus0.iq.fu_full::MemRead        398874      8.36%     49.90% # attempts to use FU when none available
system.switch_cpus0.iq.fu_full::MemWrite       650522     13.63%     63.53% # attempts to use FU when none available
system.switch_cpus0.iq.fu_full::FloatMemRead      1107109     23.21%     86.74% # attempts to use FU when none available
system.switch_cpus0.iq.fu_full::FloatMemWrite       632847     13.26%    100.00% # attempts to use FU when none available
system.switch_cpus0.iq.fu_full::IprAccess            0      0.00%    100.00% # attempts to use FU when none available
system.switch_cpus0.iq.fu_full::InstPrefetch            0      0.00%    100.00% # attempts to use FU when none available
system.switch_cpus0.iq.int_alu_accesses     223900485                       # Number of integer alu accesses
system.switch_cpus0.iq.int_inst_queue_reads    622363441                       # Number of integer instruction queue reads
system.switch_cpus0.iq.int_inst_queue_wakeup_accesses    220770589                       # Number of integer instruction queue wakeup accesses
system.switch_cpus0.iq.int_inst_queue_writes    249170439                       # Number of integer instruction queue writes
system.switch_cpus0.iq.iqInstsAdded         499899751                       # Number of instructions added to the IQ (excludes non-spec)
system.switch_cpus0.iq.iqInstsIssued        492853274                       # Number of instructions issued
system.switch_cpus0.iq.iqNonSpecInstsAdded       127326                       # Number of non-speculative instructions added to the IQ
system.switch_cpus0.iq.iqSquashedInstsExamined     43803765                       # Number of squashed instructions iterated over during squash; mainly for profiling
system.switch_cpus0.iq.iqSquashedInstsIssued       250681                       # Number of squashed instructions issued
system.switch_cpus0.iq.iqSquashedNonSpecRemoved       114462                       # Number of squashed non-spec instructions that were removed
system.switch_cpus0.iq.iqSquashedOperandsExamined     36355649                       # Number of squashed operands that are examined and possibly removed from graph
system.switch_cpus0.iq.issued_per_cycle::samples    173468606                       # Number of insts issued each cycle
system.switch_cpus0.iq.issued_per_cycle::mean     2.841167                       # Number of insts issued each cycle
system.switch_cpus0.iq.issued_per_cycle::stdev     3.028180                       # Number of insts issued each cycle
system.switch_cpus0.iq.issued_per_cycle::underflows            0      0.00%      0.00% # Number of insts issued each cycle
system.switch_cpus0.iq.issued_per_cycle::0     74770855     43.10%     43.10% # Number of insts issued each cycle
system.switch_cpus0.iq.issued_per_cycle::1      8719450      5.03%     48.13% # Number of insts issued each cycle
system.switch_cpus0.iq.issued_per_cycle::2      9882848      5.70%     53.83% # Number of insts issued each cycle
system.switch_cpus0.iq.issued_per_cycle::3     11288788      6.51%     60.33% # Number of insts issued each cycle
system.switch_cpus0.iq.issued_per_cycle::4     11564439      6.67%     67.00% # Number of insts issued each cycle
system.switch_cpus0.iq.issued_per_cycle::5     12361587      7.13%     74.13% # Number of insts issued each cycle
system.switch_cpus0.iq.issued_per_cycle::6     11908671      6.87%     80.99% # Number of insts issued each cycle
system.switch_cpus0.iq.issued_per_cycle::7     12791697      7.37%     88.37% # Number of insts issued each cycle
system.switch_cpus0.iq.issued_per_cycle::8     20180271     11.63%    100.00% # Number of insts issued each cycle
system.switch_cpus0.iq.issued_per_cycle::overflows            0      0.00%    100.00% # Number of insts issued each cycle
system.switch_cpus0.iq.issued_per_cycle::min_value            0                       # Number of insts issued each cycle
system.switch_cpus0.iq.issued_per_cycle::max_value            8                       # Number of insts issued each cycle
system.switch_cpus0.iq.issued_per_cycle::total    173468606                       # Number of insts issued each cycle
system.switch_cpus0.iq.rate                  2.832804                       # Inst issue rate
system.switch_cpus0.iq.vec_alu_accesses             0                       # Number of vector alu accesses
system.switch_cpus0.iq.vec_inst_queue_reads            0                       # Number of vector instruction queue reads
system.switch_cpus0.iq.vec_inst_queue_wakeup_accesses            0                       # Number of vector instruction queue wakeup accesses
system.switch_cpus0.iq.vec_inst_queue_writes            0                       # Number of vector instruction queue writes
system.switch_cpus0.memDep0.conflictingLoads      3509892                       # Number of conflicting loads.
system.switch_cpus0.memDep0.conflictingStores      3274946                       # Number of conflicting stores.
system.switch_cpus0.memDep0.insertedLoads     77031544                       # Number of loads inserted to the mem dependence unit.
system.switch_cpus0.memDep0.insertedStores     32712700                       # Number of stores inserted to the mem dependence unit.
system.switch_cpus0.misc_regfile_reads      194592446                       # number of misc regfile reads
system.switch_cpus0.misc_regfile_writes             1                       # number of misc regfile writes
system.switch_cpus0.numCycles               173980735                       # number of cpu cycles simulated
system.switch_cpus0.numWorkItemsCompleted            0                       # number of work items this cpu completed
system.switch_cpus0.numWorkItemsStarted             0                       # number of work items this cpu started
system.switch_cpus0.timesIdled                  12039                       # Number of times that the entire CPU went into an idle state and unscheduled itself
system.switch_cpus1.cc_regfile_reads        193088352                       # number of cc regfile reads
system.switch_cpus1.cc_regfile_writes       110339071                       # number of cc regfile writes
system.switch_cpus1.committedInsts          249855163                       # Number of Instructions Simulated
system.switch_cpus1.committedOps            456181880                       # Number of Ops (including micro ops) Simulated
system.switch_cpus1.cpi                      0.696326                       # CPI: Cycles Per Instruction
system.switch_cpus1.cpi_total                0.696326                       # CPI: Total CPI of All Threads
system.switch_cpus1.fp_regfile_reads        309304717                       # number of floating regfile reads
system.switch_cpus1.fp_regfile_writes       225690241                       # number of floating regfile writes
system.switch_cpus1.idleCycles                 556959                       # Total number of cycles that the CPU has spent unscheduled due to idling
system.switch_cpus1.iew.branchMispredicts       619708                       # Number of branch mispredicts detected at execute
system.switch_cpus1.iew.exec_branches        34839736                       # Number of branches executed
system.switch_cpus1.iew.exec_nop                    0                       # number of nop insts executed
system.switch_cpus1.iew.exec_rate            2.820925                       # Inst execution rate
system.switch_cpus1.iew.exec_refs           107686436                       # number of memory reference insts executed
system.switch_cpus1.iew.exec_stores          30541723                       # Number of stores executed
system.switch_cpus1.iew.exec_swp                    0                       # number of swp insts executed
system.switch_cpus1.iew.iewBlockCycles       22262270                       # Number of cycles IEW is blocking
system.switch_cpus1.iew.iewDispLoadInsts     77031888                       # Number of dispatched load instructions
system.switch_cpus1.iew.iewDispNonSpecInsts         2118                       # Number of dispatched non-speculative instructions
system.switch_cpus1.iew.iewDispSquashedInsts        14185                       # Number of squashed instructions skipped by dispatch
system.switch_cpus1.iew.iewDispStoreInsts     32710855                       # Number of dispatched store instructions
system.switch_cpus1.iew.iewDispatchedInsts    500012300                       # Number of instructions dispatched to IQ
system.switch_cpus1.iew.iewExecLoadInsts     77144713                       # Number of load instructions executed
system.switch_cpus1.iew.iewExecSquashedInsts      2040325                       # Number of squashed instructions skipped in execute
system.switch_cpus1.iew.iewExecutedInsts    490786656                       # Number of executed instructions
system.switch_cpus1.iew.iewIQFullEvents        168781                       # Number of times the IQ has become full, causing a stall
system.switch_cpus1.iew.iewIdleCycles               0                       # Number of cycles IEW is idle
system.switch_cpus1.iew.iewLSQFullEvents      6316308                       # Number of times the LSQ has become full, causing a stall
system.switch_cpus1.iew.iewSquashCycles        724753                       # Number of cycles IEW is squashing
system.switch_cpus1.iew.iewUnblockCycles      6536328                       # Number of cycles IEW is unblocking
system.switch_cpus1.iew.memOrderViolationEvents        10863                       # Number of memory order violations
system.switch_cpus1.iew.predictedNotTakenIncorrect       226797                       # Number of branches that were predicted not taken incorrectly
system.switch_cpus1.iew.predictedTakenIncorrect       392911                       # Number of branches that were predicted taken incorrectly
system.switch_cpus1.iew.wb_consumers        536477006                       # num instructions consuming a value
system.switch_cpus1.iew.wb_count            487389119                       # cumulative count of insts written-back
system.switch_cpus1.iew.wb_fanout            0.600155                       # average fanout of values written-back
system.switch_cpus1.iew.wb_producers        321969427                       # num instructions producing a value
system.switch_cpus1.iew.wb_rate              2.801397                       # insts written-back per cycle
system.switch_cpus1.iew.wb_sent             489275414                       # cumulative count of insts sent to commit
system.switch_cpus1.int_regfile_reads       419826161                       # number of integer regfile reads
system.switch_cpus1.int_regfile_writes      182818131                       # number of integer regfile writes
system.switch_cpus1.ipc                      1.436108                       # IPC: Instructions Per Cycle
system.switch_cpus1.ipc_total                1.436108                       # IPC: Total IPC of All Threads
system.switch_cpus1.iq.FU_type_0::No_OpClass      1571060      0.32%      0.32% # Type of FU issued
system.switch_cpus1.iq.FU_type_0::IntAlu    222836315     45.22%     45.53% # Type of FU issued
system.switch_cpus1.iq.FU_type_0::IntMult        11414      0.00%     45.54% # Type of FU issued
system.switch_cpus1.iq.FU_type_0::IntDiv            0      0.00%     45.54% # Type of FU issued
system.switch_cpus1.iq.FU_type_0::FloatAdd     68818260     13.96%     59.50% # Type of FU issued
system.switch_cpus1.iq.FU_type_0::FloatCmp            0      0.00%     59.50% # Type of FU issued
system.switch_cpus1.iq.FU_type_0::FloatCvt            0      0.00%     59.50% # Type of FU issued
system.switch_cpus1.iq.FU_type_0::FloatMult            0      0.00%     59.50% # Type of FU issued
system.switch_cpus1.iq.FU_type_0::FloatMultAcc            0      0.00%     59.50% # Type of FU issued
system.switch_cpus1.iq.FU_type_0::FloatDiv            0      0.00%     59.50% # Type of FU issued
system.switch_cpus1.iq.FU_type_0::FloatMisc            0      0.00%     59.50% # Type of FU issued
system.switch_cpus1.iq.FU_type_0::FloatSqrt            0      0.00%     59.50% # Type of FU issued
system.switch_cpus1.iq.FU_type_0::SimdAdd            0      0.00%     59.50% # Type of FU issued
system.switch_cpus1.iq.FU_type_0::SimdAddAcc            0      0.00%     59.50% # Type of FU issued
system.switch_cpus1.iq.FU_type_0::SimdAlu      9242473      1.88%     61.38% # Type of FU issued
system.switch_cpus1.iq.FU_type_0::SimdCmp            0      0.00%     61.38% # Type of FU issued
system.switch_cpus1.iq.FU_type_0::SimdCvt            0      0.00%     61.38% # Type of FU issued
system.switch_cpus1.iq.FU_type_0::SimdMisc      5715473      1.16%     62.54% # Type of FU issued
system.switch_cpus1.iq.FU_type_0::SimdMult            0      0.00%     62.54% # Type of FU issued
system.switch_cpus1.iq.FU_type_0::SimdMultAcc            0      0.00%     62.54% # Type of FU issued
system.switch_cpus1.iq.FU_type_0::SimdShift            0      0.00%     62.54% # Type of FU issued
system.switch_cpus1.iq.FU_type_0::SimdShiftAcc            0      0.00%     62.54% # Type of FU issued
system.switch_cpus1.iq.FU_type_0::SimdDiv            0      0.00%     62.54% # Type of FU issued
system.switch_cpus1.iq.FU_type_0::SimdSqrt            0      0.00%     62.54% # Type of FU issued
system.switch_cpus1.iq.FU_type_0::SimdFloatAdd     23841224      4.84%     67.37% # Type of FU issued
system.switch_cpus1.iq.FU_type_0::SimdFloatAlu            0      0.00%     67.37% # Type of FU issued
system.switch_cpus1.iq.FU_type_0::SimdFloatCmp       652243      0.13%     67.51% # Type of FU issued
system.switch_cpus1.iq.FU_type_0::SimdFloatCvt     18089284      3.67%     71.18% # Type of FU issued
system.switch_cpus1.iq.FU_type_0::SimdFloatDiv      5720708      1.16%     72.34% # Type of FU issued
system.switch_cpus1.iq.FU_type_0::SimdFloatMisc            0      0.00%     72.34% # Type of FU issued
system.switch_cpus1.iq.FU_type_0::SimdFloatMult     27062521      5.49%     77.83% # Type of FU issued
system.switch_cpus1.iq.FU_type_0::SimdFloatMultAcc            0      0.00%     77.83% # Type of FU issued
system.switch_cpus1.iq.FU_type_0::SimdFloatSqrt      1016341      0.21%     78.03% # Type of FU issued
system.switch_cpus1.iq.FU_type_0::SimdReduceAdd            0      0.00%     78.03% # Type of FU issued
system.switch_cpus1.iq.FU_type_0::SimdReduceAlu            0      0.00%     78.03% # Type of FU issued
system.switch_cpus1.iq.FU_type_0::SimdReduceCmp            0      0.00%     78.03% # Type of FU issued
system.switch_cpus1.iq.FU_type_0::SimdFloatReduceAdd            0      0.00%     78.03% # Type of FU issued
system.switch_cpus1.iq.FU_type_0::SimdFloatReduceCmp            0      0.00%     78.03% # Type of FU issued
[...]
system.switch_cpus3.commit.numCommittedDist::1     13881092      8.25%     59.70% # Number of insts commited each cycle
system.switch_cpus3.commit.numCommittedDist::2      3433195      2.04%     61.74% # Number of insts commited each cycle
system.switch_cpus3.commit.numCommittedDist::3      7187038      4.27%     66.01% # Number of insts commited each cycle
system.switch_cpus3.commit.numCommittedDist::4      5757236      3.42%     69.43% # Number of insts commited each cycle
system.switch_cpus3.commit.numCommittedDist::5      3971684      2.36%     71.79% # Number of insts commited each cycle
system.switch_cpus3.commit.numCommittedDist::6      2805531      1.67%     73.46% # Number of insts commited each cycle
system.switch_cpus3.commit.numCommittedDist::7      2909596      1.73%     75.19% # Number of insts commited each cycle
system.switch_cpus3.commit.numCommittedDist::8     41755285     24.81%    100.00% # Number of insts commited each cycle
system.switch_cpus3.commit.numCommittedDist::overflows            0      0.00%    100.00% # Number of insts commited each cycle
system.switch_cpus3.commit.numCommittedDist::min_value            0                       # Number of insts commited each cycle
system.switch_cpus3.commit.numCommittedDist::max_value            8                       # Number of insts commited each cycle
system.switch_cpus3.commit.numCommittedDist::total    168268630                       # Number of insts commited each cycle
system.switch_cpus3.commit.instsCommitted    250000000                       # Number of instructions committed
system.switch_cpus3.commit.opsCommitted     456438598                       # Number of ops (including micro ops) committed
system.switch_cpus3.commit.memRefs           95535532                       # Number of memory references committed
system.switch_cpus3.commit.loads             69324056                       # Number of loads committed
system.switch_cpus3.commit.amos                     0                       # Number of atomic instructions committed
system.switch_cpus3.commit.membars               1880                       # Number of memory barriers committed
system.switch_cpus3.commit.branches          33082923                       # Number of branches committed
system.switch_cpus3.commit.vector                   0                       # Number of committed Vector instructions.
system.switch_cpus3.commit.floating         253088912                       # Number of committed floating point instructions.
system.switch_cpus3.commit.integer          282469051                       # Number of committed integer instructions.
system.switch_cpus3.commit.functionCalls      1781692                       # Number of function calls committed.
system.switch_cpus3.commit.committedInstType_0::No_OpClass       157149      0.03%      0.03% # Class of committed instruction
system.switch_cpus3.commit.committedInstType_0::IntAlu    206294742     45.20%     45.23% # Class of committed instruction
system.switch_cpus3.commit.committedInstType_0::IntMult        10887      0.00%     45.23% # Class of committed instruction
system.switch_cpus3.commit.committedInstType_0::IntDiv            0      0.00%     45.23% # Class of committed instruction
system.switch_cpus3.commit.committedInstType_0::FloatAdd     65125111     14.27%     59.50% # Class of committed instruction
system.switch_cpus3.commit.committedInstType_0::FloatCmp            0      0.00%     59.50% # Class of committed instruction
system.switch_cpus3.commit.committedInstType_0::FloatCvt            0      0.00%     59.50% # Class of committed instruction
system.switch_cpus3.commit.committedInstType_0::FloatMult            0      0.00%     59.50% # Class of committed instruction
system.switch_cpus3.commit.committedInstType_0::FloatMultAcc            0      0.00%     59.50% # Class of committed instruction
system.switch_cpus3.commit.committedInstType_0::FloatDiv            0      0.00%     59.50% # Class of committed instruction
system.switch_cpus3.commit.committedInstType_0::FloatMisc            0      0.00%     59.50% # Class of committed instruction
system.switch_cpus3.commit.committedInstType_0::FloatSqrt            0      0.00%     59.50% # Class of committed instruction
system.switch_cpus3.commit.committedInstType_0::SimdAdd            0      0.00%     59.50% # Class of committed instruction
system.switch_cpus3.commit.committedInstType_0::SimdAddAcc            0      0.00%     59.50% # Class of committed instruction
system.switch_cpus3.commit.committedInstType_0::SimdAlu      8954656      1.96%     61.46% # Class of committed instruction
system.switch_cpus3.commit.committedInstType_0::SimdCmp            0      0.00%     61.46% # Class of committed instruction
system.switch_cpus3.commit.committedInstType_0::SimdCvt            0      0.00%     61.46% # Class of committed instruction
system.switch_cpus3.commit.committedInstType_0::SimdMisc      5666285      1.24%     62.70% # Class of committed instruction
system.switch_cpus3.commit.committedInstType_0::SimdMult            0      0.00%     62.70% # Class of committed instruction
system.switch_cpus3.commit.committedInstType_0::SimdMultAcc            0      0.00%     62.70% # Class of committed instruction
system.switch_cpus3.commit.committedInstType_0::SimdShift            0      0.00%     62.70% # Class of committed instruction
system.switch_cpus3.commit.committedInstType_0::SimdShiftAcc            0      0.00%     62.70% # Class of committed instruction
system.switch_cpus3.commit.committedInstType_0::SimdDiv            0      0.00%     62.70% # Class of committed instruction
system.switch_cpus3.commit.committedInstType_0::SimdSqrt            0      0.00%     62.70% # Class of committed instruction
system.switch_cpus3.commit.committedInstType_0::SimdFloatAdd     23220005      5.09%     67.79% # Class of committed instruction
system.switch_cpus3.commit.committedInstType_0::SimdFloatAlu            0      0.00%     67.79% # Class of committed instruction
system.switch_cpus3.commit.committedInstType_0::SimdFloatCmp       645181      0.14%     67.93% # Class of committed instruction
system.switch_cpus3.commit.committedInstType_0::SimdFloatCvt     17698310      3.88%     71.81% # Class of committed instruction
system.switch_cpus3.commit.committedInstType_0::SimdFloatDiv      5533646      1.21%     73.02% # Class of committed instruction
system.switch_cpus3.commit.committedInstType_0::SimdFloatMisc            0      0.00%     73.02% # Class of committed instruction
system.switch_cpus3.commit.committedInstType_0::SimdFloatMult     26610445      5.83%     78.85% # Class of committed instruction
system.switch_cpus3.commit.committedInstType_0::SimdFloatMultAcc            0      0.00%     78.85% # Class of committed instruction
system.switch_cpus3.commit.committedInstType_0::SimdFloatSqrt       986649      0.22%     79.07% # Class of committed instruction
system.switch_cpus3.commit.committedInstType_0::SimdReduceAdd            0      0.00%     79.07% # Class of committed instruction
system.switch_cpus3.commit.committedInstType_0::SimdReduceAlu            0      0.00%     79.07% # Class of committed instruction
system.switch_cpus3.commit.committedInstType_0::SimdReduceCmp            0      0.00%     79.07% # Class of committed instruction
system.switch_cpus3.commit.committedInstType_0::SimdFloatReduceAdd            0      0.00%     79.07% # Class of committed instruction
system.switch_cpus3.commit.committedInstType_0::SimdFloatReduceCmp            0      0.00%     79.07% # Class of committed instruction
system.switch_cpus3.commit.committedInstType_0::SimdAes            0      0.00%     79.07% # Class of committed instruction
system.switch_cpus3.commit.committedInstType_0::SimdAesMix            0      0.00%     79.07% # Class of committed instruction
system.switch_cpus3.commit.committedInstType_0::SimdSha1Hash            0      0.00%     79.07% # Class of committed instruction
system.switch_cpus3.commit.committedInstType_0::SimdSha1Hash2            0      0.00%     79.07% # Class of committed instruction
system.switch_cpus3.commit.committedInstType_0::SimdSha256Hash            0      0.00%     79.07% # Class of committed instruction
system.switch_cpus3.commit.committedInstType_0::SimdSha256Hash2            0      0.00%     79.07% # Class of committed instruction
system.switch_cpus3.commit.committedInstType_0::SimdShaSigma2            0      0.00%     79.07% # Class of committed instruction
system.switch_cpus3.commit.committedInstType_0::SimdShaSigma3            0      0.00%     79.07% # Class of committed instruction
system.switch_cpus3.commit.committedInstType_0::SimdPredAlu            0      0.00%     79.07% # Class of committed instruction
system.switch_cpus3.commit.committedInstType_0::MemRead     15185787      3.33%     82.40% # Class of committed instruction
system.switch_cpus3.commit.committedInstType_0::MemWrite      6521339      1.43%     83.83% # Class of committed instruction
system.switch_cpus3.commit.committedInstType_0::FloatMemRead     54138269     11.86%     95.69% # Class of committed instruction
system.switch_cpus3.commit.committedInstType_0::FloatMemWrite     19690137      4.31%    100.00% # Class of committed instruction
system.switch_cpus3.commit.committedInstType_0::IprAccess            0      0.00%    100.00% # Class of committed instruction
system.switch_cpus3.commit.committedInstType_0::InstPrefetch            0      0.00%    100.00% # Class of committed instruction
system.switch_cpus3.commit.committedInstType_0::total    456438598                       # Class of committed instruction
system.switch_cpus3.commit.commitEligibleSamples     41755285                       # number cycles where commit BW limit reached
system.switch_cpus3.decode.idleCycles         8327463                       # Number of cycles decode is idle
system.switch_cpus3.decode.blockedCycles     92010909                       # Number of cycles decode is blocked
system.switch_cpus3.decode.runCycles         60055300                       # Number of cycles decode is running
system.switch_cpus3.decode.unblockCycles     12359078                       # Number of cycles decode is unblocking
system.switch_cpus3.decode.squashCycles        724268                       # Number of cycles decode is squashing
system.switch_cpus3.decode.branchResolved     17539671                       # Number of times decode resolved a  branch
system.switch_cpus3.decode.branchMispred         3943                       # Number of times decode detected a branch misprediction
system.switch_cpus3.decode.decodedInsts     511929942                       # Number of instructions handled by decode
system.switch_cpus3.decode.squashedInsts        20343                       # Number of squashed instructions handled by decode
system.switch_cpus3.dtb.rdAccesses           77873877                       # TLB accesses on read requests
system.switch_cpus3.dtb.wrAccesses           30631744                       # TLB accesses on write requests
system.switch_cpus3.dtb.rdMisses                24757                       # TLB misses on read requests
system.switch_cpus3.dtb.wrMisses                11401                       # TLB misses on write requests
system.switch_cpus3.dtb.walker.power_state.pwrStateResidencyTicks::UNDEFINED 18204249972222                       # Cumulative time (in ticks) in various power states
system.switch_cpus3.fetch.icacheStallCycles      1207585                       # Number of cycles fetch is stalled on an Icache miss
system.switch_cpus3.fetch.insts             284938851                       # Number of instructions fetch has processed
system.switch_cpus3.fetch.branches           38201940                       # Number of branches that fetch encountered
system.switch_cpus3.fetch.predictedBranches     22095094                       # Number of branches that fetch has predicted taken
system.switch_cpus3.fetch.cycles            171520011                       # Number of cycles fetch has run and was not squashing or blocked
system.switch_cpus3.fetch.squashCycles        1456290                       # Number of cycles fetch has spent squashing
system.switch_cpus3.fetch.tlbCycles                 1                       # Number of cycles fetch has spent waiting for tlb
system.switch_cpus3.fetch.miscStallCycles         2786                       # Number of cycles fetch has spent waiting on interrupts,or bad addresses, or out of MSHRs
system.switch_cpus3.fetch.pendingTrapStallCycles        18496                       # Number of stall cycles due to pending traps
system.switch_cpus3.fetch.cacheLines         36824698                       # Number of cache lines fetched
system.switch_cpus3.fetch.icacheSquashes         9946                       # Number of outstanding Icache misses that were squashed
system.switch_cpus3.fetch.nisnDist::samples    173477024                       # Number of instructions fetched each cycle (Total)
system.switch_cpus3.fetch.nisnDist::mean     3.025840                       # Number of instructions fetched each cycle (Total)
system.switch_cpus3.fetch.nisnDist::stdev     3.488072                       # Number of instructions fetched each cycle (Total)
system.switch_cpus3.fetch.nisnDist::underflows            0      0.00%      0.00% # Number of instructions fetched each cycle (Total)
system.switch_cpus3.fetch.nisnDist::0        87332409     50.34%     50.34% # Number of instructions fetched each cycle (Total)
system.switch_cpus3.fetch.nisnDist::1         5305166      3.06%     53.40% # Number of instructions fetched each cycle (Total)
system.switch_cpus3.fetch.nisnDist::2         4948375      2.85%     56.25% # Number of instructions fetched each cycle (Total)
system.switch_cpus3.fetch.nisnDist::3         8468274      4.88%     61.13% # Number of instructions fetched each cycle (Total)
system.switch_cpus3.fetch.nisnDist::4         4975777      2.87%     64.00% # Number of instructions fetched each cycle (Total)
system.switch_cpus3.fetch.nisnDist::5         6441264      3.71%     67.72% # Number of instructions fetched each cycle (Total)
system.switch_cpus3.fetch.nisnDist::6         5170017      2.98%     70.70% # Number of instructions fetched each cycle (Total)
system.switch_cpus3.fetch.nisnDist::7         5508456      3.18%     73.87% # Number of instructions fetched each cycle (Total)
system.switch_cpus3.fetch.nisnDist::8        45327286     26.13%    100.00% # Number of instructions fetched each cycle (Total)
system.switch_cpus3.fetch.nisnDist::overflows            0      0.00%    100.00% # Number of instructions fetched each cycle (Total)
system.switch_cpus3.fetch.nisnDist::min_value            0                       # Number of instructions fetched each cycle (Total)
system.switch_cpus3.fetch.nisnDist::max_value            8                       # Number of instructions fetched each cycle (Total)
system.switch_cpus3.fetch.nisnDist::total    173477024                       # Number of instructions fetched each cycle (Total)
system.switch_cpus3.fetch.branchRate         0.219576                       # Number of branch fetches per cycle
system.switch_cpus3.fetch.rate               1.637761                       # Number of inst fetches per cycle
system.switch_cpus3.itb.rdAccesses                  0                       # TLB accesses on read requests
system.switch_cpus3.itb.wrAccesses           36827769                       # TLB accesses on write requests
system.switch_cpus3.itb.rdMisses                    0                       # TLB misses on read requests
system.switch_cpus3.itb.wrMisses                 3141                       # TLB misses on write requests
system.switch_cpus3.itb.walker.power_state.pwrStateResidencyTicks::UNDEFINED 18204249972222                       # Cumulative time (in ticks) in various power states
system.switch_cpus3.lsq0.forwLoads            5321196                       # Number of loads that had data forwarded from stores
system.switch_cpus3.lsq0.squashedLoads        7741425                       # Number of loads squashed
system.switch_cpus3.lsq0.ignoredResponses         1597                       # Number of memory responses ignored because the instruction is squashed
system.switch_cpus3.lsq0.memOrderViolation        10712                       # Number of memory ordering violations
system.switch_cpus3.lsq0.squashedStores       6548565                       # Number of stores squashed
system.switch_cpus3.lsq0.rescheduledLoads      1005171                       # Number of loads that were rescheduled
system.switch_cpus3.lsq0.blockedByCache          8919                       # Number of times an access to memory failed due to the cache being blocked
system.switch_cpus3.power_state.pwrStateResidencyTicks::OFF  57935595078                       # Cumulative time (in ticks) in various power states
system.switch_cpus3.rename.squashCycles        724268                       # Number of cycles rename is squashing
system.switch_cpus3.rename.idleCycles        13181518                       # Number of cycles rename is idle
system.switch_cpus3.rename.blockCycles       38955843                       # Number of cycles rename is blocking
system.switch_cpus3.rename.serializeStallCycles            0                       # count of cycles rename stalledfor serializing inst
system.switch_cpus3.rename.runCycles         67139269                       # Number of cycles rename is running
system.switch_cpus3.rename.unblockCycles     53476120                       # Number of cycles rename is unblocking
system.switch_cpus3.rename.renamedInsts     506845038                       # Number of instructions processed by rename
system.switch_cpus3.rename.ROBFullEvents      1535486                       # Number of times rename has blocked due to ROB full
system.switch_cpus3.rename.IQFullEvents      12120399                       # Number of times rename has blocked due to IQ full
system.switch_cpus3.rename.LQFullEvents      14039350                       # Number of times rename has blocked due to LQ full
system.switch_cpus3.rename.SQFullEvents      24628564                       # Number of times rename has blocked due to SQ full
system.switch_cpus3.rename.renamedOperands    535979826                       # Number of destination operands rename has renamed
system.switch_cpus3.rename.lookups         1164024153                       # Number of register rename lookups that rename has made
system.switch_cpus3.rename.intLookups       435021450                       # Number of integer rename lookups
system.switch_cpus3.rename.fpLookups        323073606                       # Number of floating rename lookups
system.switch_cpus3.rename.committedMaps    486355473                       # Number of HB maps that are committed
system.switch_cpus3.rename.undoneMaps        49624219                       # Number of HB maps that are undone due to squashing
system.switch_cpus3.rename.serializing              0                       # count of serializing insts renamed
system.switch_cpus3.rename.tempSerializing            0                       # count of temporary serializing insts renamed
system.switch_cpus3.rename.skidInsts         55801587                       # count of insts added to the skid buffer
system.switch_cpus3.rob.reads               619759029                       # The number of ROB reads
system.switch_cpus3.rob.writes              995882235                       # The number of ROB writes
system.switch_cpus3.thread0.numInsts        250000000                       # Number of Instructions committed
system.switch_cpus3.thread0.numOps          456438598                       # Number of Ops committed
system.switch_cpus3.thread0.numMemRefs              0                       # Number of Memory References
system.voltage_domain.voltage                       1                       # Voltage in Volts

---------- End Simulation Statistics   ----------
