Command line:
./runscript_pride.sh mix13 RFM2.BR2.4C 4 2017 --rh_defense --rh_mitigation=RFM --rh_rfm_per_trefi=2 --rh_rfm_blast_radius=2 --rh_rfm_maxacts_per_trefi=79
Global frequency set at 1000000000000 ticks per second
RFM details - rfm_act_threshold: 39, blast_radius: 2, delay_per_rfm: 175000 ps. sample_rate: 0.025000
RH Defense config: RFM, Bus Delay: 0, rfms_per_trefi: 2, rfm_act_threshold: 39, blast_radius: 2,rfm_delay_per_act: 45000 ps.
DRAM config: RowsPerBank: 65536, BanksPerRank: 32, RanksPerChannel: 1
warn: Sockets disabled, not accepting gdb connections
warn: CoherentXBar system.cpu0.mmucache.mmubus has no snooping ports attached!
warn: CoherentXBar system.cpu1.mmucache.mmubus has no snooping ports attached!
warn: CoherentXBar system.cpu2.mmucache.mmubus has no snooping ports attached!
warn: CoherentXBar system.cpu3.mmucache.mmubus has no snooping ports attached!
warn: Checkpoints for file descriptors currently do not work.
warn: Checkpoints for file descriptors currently do not work.
warn: Checkpoints for file descriptors currently do not work.
warn: Checkpoints for file descriptors currently do not work.
gem5 Simulator System.  http://gem5.org
gem5 is copyrighted software; use the --copyright option for details.

gem5 version 20.1.0.5
gem5 compiled Jul 12 2024 12:42:38
gem5 started Aug  1 2024 17:17:13
gem5 executing on a07dda8b130c, pid 250449
command line: /home/user/PrIDE/performance/gem5/build/X86/gem5.opt --outdir=/home/user/PrIDE/performance/gem5/stats/pride_multiprogram_16GBmem_250Mn.SPEC2017.C4/RFM2.BR2.4C/mix13 /home/user/PrIDE/performance/gem5/configs/example/se_rq_spec_config_multicore.py --redirects /lib64=/home/utils/gcc-6.2.0/lib64 --benchmark=mix13 --benchmark_stdout=/home/user/PrIDE/performance/gem5/stats/pride_multiprogram_16GBmem_250Mn.SPEC2017.C4/RFM2.BR2.4C/mix13/mix13.out --benchmark_stderr=/home/user/PrIDE/performance/gem5/stats/pride_multiprogram_16GBmem_250Mn.SPEC2017.C4/RFM2.BR2.4C/mix13/mix13.err --spec-version=2017 --rh_defense --rh_mitigation=RFM --rh_rfm_per_trefi=2 --rh_rfm_blast_radius=2 --rh_rfm_maxacts_per_trefi=79 --num-cpus=4 --mem-size=16GB --mem-type=DDR5_2400_32x4 --mem-ranks=1 --mem-channels=1 --checkpoint-dir=/home/user/PrIDE/performance/gem5/cpts-DDR5/multiprogram_16GBmem_25Bn.SPEC2017.C4/mix13-1-ref-x86 --checkpoint-restore=25000000000 --at-instruction --cpu-type DerivO3CPU --caches --l2cache --l1d_size=32kB --l1i_size=32kB --l2_size=256kB --l3_size=4MB --l1d_assoc=8 --l1i_assoc=8 --l2_assoc=16 --l3_assoc=16 --cpu-clock=3GHz --sys-clock=3GHz --maxinsts=250000000 --prog-interval=300Hz

info: Standard input is not a terminal, disabling listeners.
Benchmark- 0   lbm
Selected benchmark
--> lbm
CMD: ['/opt/spec2017/benchspec/CPU/519.lbm_r/run/run_base_refrate_gem5_se-m64.0000/lbm_r_base.gem5_se-m64', '3000', 'reference.dat', '0', '0', '/opt/spec2017/benchspec/CPU/519.lbm_r/run/run_base_refrate_gem5_se-m64.0000/100_100_130_ldc.of']
CWD: /opt/spec2017/benchspec/CPU/519.lbm_r/run/run_base_refrate_gem5_se-m64.0000/
Process stdout file: /home/user/PrIDE/performance/gem5/stats/pride_multiprogram_16GBmem_250Mn.SPEC2017.C4/RFM2.BR2.4C/mix13/mix13.out_0
Process stderr file: /home/user/PrIDE/performance/gem5/stats/pride_multiprogram_16GBmem_250Mn.SPEC2017.C4/RFM2.BR2.4C/mix13/mix13.err_0
Benchmark- 1   mcf
Selected benchmark
--> mcf
CMD: ['/opt/spec2017/benchspec/CPU/505.mcf_r/run/run_base_refrate_gem5_se-m64.0000/mcf_r_base.gem5_se-m64', '/opt/spec2017/benchspec/CPU/505.mcf_r/run/run_base_refrate_gem5_se-m64.0000/inp.in']
CWD: /opt/spec2017/benchspec/CPU/505.mcf_r/run/run_base_refrate_gem5_se-m64.0000/
Process stdout file: /home/user/PrIDE/performance/gem5/stats/pride_multiprogram_16GBmem_250Mn.SPEC2017.C4/RFM2.BR2.4C/mix13/mix13.out_1
Process stderr file: /home/user/PrIDE/performance/gem5/stats/pride_multiprogram_16GBmem_250Mn.SPEC2017.C4/RFM2.BR2.4C/mix13/mix13.err_1
Benchmark- 2   wrf
Selected benchmark
--> wrf
CMD: ['/opt/spec2017/benchspec/CPU/521.wrf_r/run/run_base_refrate_gem5_se-m64.0000/wrf_r_base.gem5_se-m64']
CWD: /opt/spec2017/benchspec/CPU/521.wrf_r/run/run_base_refrate_gem5_se-m64.0000/
Process stdout file: /home/user/PrIDE/performance/gem5/stats/pride_multiprogram_16GBmem_250Mn.SPEC2017.C4/RFM2.BR2.4C/mix13/mix13.out_2
Process stderr file: /home/user/PrIDE/performance/gem5/stats/pride_multiprogram_16GBmem_250Mn.SPEC2017.C4/RFM2.BR2.4C/mix13/mix13.err_2
Benchmark- 3   exchange2
Selected benchmark
--> exchange2
CMD: ['/opt/spec2017/benchspec/CPU/548.exchange2_r/run/run_base_refrate_gem5_se-m64.0000/exchange2_r_base.gem5_se-m64', '6']
CWD: /opt/spec2017/benchspec/CPU/548.exchange2_r/run/run_base_refrate_gem5_se-m64.0000/
Process stdout file: /home/user/PrIDE/performance/gem5/stats/pride_multiprogram_16GBmem_250Mn.SPEC2017.C4/RFM2.BR2.4C/mix13/mix13.out_3
Process stderr file: /home/user/PrIDE/performance/gem5/stats/pride_multiprogram_16GBmem_250Mn.SPEC2017.C4/RFM2.BR2.4C/mix13/mix13.err_3
Workload-0: 
['/opt/spec2017/benchspec/CPU/519.lbm_r/run/run_base_refrate_gem5_se-m64.0000/lbm_r_base.gem5_se-m64', '3000', 'reference.dat', '0', '0', '/opt/spec2017/benchspec/CPU/519.lbm_r/run/run_base_refrate_gem5_se-m64.0000/100_100_130_ldc.of']
Workload-1: 
['/opt/spec2017/benchspec/CPU/505.mcf_r/run/run_base_refrate_gem5_se-m64.0000/mcf_r_base.gem5_se-m64', '/opt/spec2017/benchspec/CPU/505.mcf_r/run/run_base_refrate_gem5_se-m64.0000/inp.in']
Workload-2: 
['/opt/spec2017/benchspec/CPU/521.wrf_r/run/run_base_refrate_gem5_se-m64.0000/wrf_r_base.gem5_se-m64']
Workload-3: 
['/opt/spec2017/benchspec/CPU/548.exchange2_r/run/run_base_refrate_gem5_se-m64.0000/exchange2_r_base.gem5_se-m64', '6']
defense_enable:  True  detector:  MG  mitigation:  RFM  threshold:  800
mg_entries:  1700
rfm_maxacts_per_trefi:  79 rfm_per_trefi:  2 rfm_blast_radius:  2
Switch at curTick count:10000
warn: membus.master is deprecated. `master` is now called `mem_side_ports`
warn: No dot file generated. Please install pydot to generate the dot file and pdf.
info: Entering event queue @ 13719052595952.  Starting simulation...
info: Entering event queue @ 13719052605952.  Starting simulation...
warn: PowerState: Already in the requested power state, request ignored
Switched CPUS @ tick 13719052605952
switching cpus
**** REAL SIMULATION ****
info: Entering event queue @ 13719052606275.  Starting simulation...
13722385929285: Event_285: system.switch_cpus3 progress event, total committed:35443617, progress insts committed: 35443617, IPC: 03.54082
13722385929285: Event_284: system.switch_cpus2 progress event, total committed:7152152, progress insts committed: 7152152, IPC: 000.7145
13722385929285: Event_283: system.switch_cpus1 progress event, total committed:7126578, progress insts committed: 7126578, IPC: 0.711945
13722385929285: Event_282: system.switch_cpus0 progress event, total committed:8402424, progress insts committed: 8402424, IPC: 0.839402
13725719262618: Event_282: system.switch_cpus0 progress event, total committed:15944743, progress insts committed: 7542319, IPC: 0.753478
13725719262618: Event_283: system.switch_cpus1 progress event, total committed:14926813, progress insts committed: 7800235, IPC: 0.779243
13725719262618: Event_284: system.switch_cpus2 progress event, total committed:13055203, progress insts committed: 5903051, IPC: 0.589715
13725719262618: Event_285: system.switch_cpus3 progress event, total committed:72631364, progress insts committed: 37187747, IPC: 03.71506
13729052595951: Event_285: system.switch_cpus3 progress event, total committed:111407372, progress insts committed: 38776008, IPC: 03.87372
13729052595951: Event_284: system.switch_cpus2 progress event, total committed:18999606, progress insts committed: 5944403, IPC: 0.593846
13729052595951: Event_283: system.switch_cpus1 progress event, total committed:22332587, progress insts committed: 7405774, IPC: 0.739837
13729052595951: Event_282: system.switch_cpus0 progress event, total committed:22670726, progress insts committed: 6725983, IPC: 0.671926
13732385929284: Event_282: system.switch_cpus0 progress event, total committed:30086755, progress insts committed: 7416029, IPC: 0.740861
13732385929284: Event_283: system.switch_cpus1 progress event, total committed:29389432, progress insts committed: 7056845, IPC: 0.704979
13732385929284: Event_284: system.switch_cpus2 progress event, total committed:24830284, progress insts committed: 5830678, IPC: 0.582485
13732385929284: Event_285: system.switch_cpus3 progress event, total committed:152672026, progress insts committed: 41264654, IPC: 04.12234
13735719262617: Event_285: system.switch_cpus3 progress event, total committed:191690518, progress insts committed: 39018492, IPC: 03.89795
13735719262617: Event_284: system.switch_cpus2 progress event, total committed:30207560, progress insts committed: 5377276, IPC: 00.53719
13735719262617: Event_283: system.switch_cpus1 progress event, total committed:36336309, progress insts committed: 6946877, IPC: 0.693993
13735719262617: Event_282: system.switch_cpus0 progress event, total committed:37299054, progress insts committed: 7212299, IPC: 0.720509
13739052595950: Event_282: system.switch_cpus0 progress event, total committed:44449376, progress insts committed: 7150322, IPC: 0.714317
13739052595950: Event_283: system.switch_cpus1 progress event, total committed:44024208, progress insts committed: 7687899, IPC: 0.768021
13739052595950: Event_284: system.switch_cpus2 progress event, total committed:36746252, progress insts committed: 6538692, IPC: 0.653215
13739052595950: Event_285: system.switch_cpus3 progress event, total committed:228864219, progress insts committed: 37173701, IPC: 03.71365
warn: MOVNTDQ: Ignoring non-temporal hint, modeling as cacheable!
13742385929283: Event_285: system.switch_cpus3 progress event, total committed:267795167, progress insts committed: 38930948, IPC: 003.8892
13742385929283: Event_284: system.switch_cpus2 progress event, total committed:41201301, progress insts committed: 4455049, IPC: 0.445059
13742385929283: Event_283: system.switch_cpus1 progress event, total committed:51501587, progress insts committed: 7477379, IPC: 00.74699
13742385929283: Event_282: system.switch_cpus0 progress event, total committed:52269192, progress insts committed: 7819816, IPC: 000.7812
13745719262616: Event_282: system.switch_cpus0 progress event, total committed:59142062, progress insts committed: 6872870, IPC: 000.6866
13745719262616: Event_283: system.switch_cpus1 progress event, total committed:59127509, progress insts committed: 7625922, IPC: 00.76183
13745719262616: Event_284: system.switch_cpus2 progress event, total committed:43532626, progress insts committed: 2331325, IPC: 0.232899
13745719262616: Event_285: system.switch_cpus3 progress event, total committed:303696627, progress insts committed: 35901460, IPC: 03.58656
13749052595949: Event_285: system.switch_cpus3 progress event, total committed:343276063, progress insts committed: 39579436, IPC: 03.95399
13749052595949: Event_284: system.switch_cpus2 progress event, total committed:47994520, progress insts committed: 4461894, IPC: 0.445743
13749052595949: Event_283: system.switch_cpus1 progress event, total committed:65399862, progress insts committed: 6272353, IPC: 0.626608
13749052595949: Event_282: system.switch_cpus0 progress event, total committed:66430935, progress insts committed: 7288873, IPC: 0.728158
13752385929282: Event_282: system.switch_cpus0 progress event, total committed:73487584, progress insts committed: 7056649, IPC: 0.704959
13752385929282: Event_283: system.switch_cpus1 progress event, total committed:73098531, progress insts committed: 7698669, IPC: 0.769097
13752385929282: Event_284: system.switch_cpus2 progress event, total committed:52475366, progress insts committed: 4480846, IPC: 0.447637
13752385929282: Event_285: system.switch_cpus3 progress event, total committed:381836672, progress insts committed: 38560609, IPC: 003.8522
13755719262615: Event_285: system.switch_cpus3 progress event, total committed:417585948, progress insts committed: 35749276, IPC: 03.57135
13755719262615: Event_284: system.switch_cpus2 progress event, total committed:57166760, progress insts committed: 4691394, IPC: 00.46867
13755719262615: Event_283: system.switch_cpus1 progress event, total committed:80678730, progress insts committed: 7580199, IPC: 0.757262
13755719262615: Event_282: system.switch_cpus0 progress event, total committed:80480658, progress insts committed: 6993074, IPC: 0.698608
13759052595948: Event_282: system.switch_cpus0 progress event, total committed:88187197, progress insts committed: 7706539, IPC: 0.769883
13759052595948: Event_283: system.switch_cpus1 progress event, total committed:87305344, progress insts committed: 6626614, IPC: 0.661999
13759052595948: Event_284: system.switch_cpus2 progress event, total committed:61956409, progress insts committed: 4789649, IPC: 0.478486
13759052595948: Event_285: system.switch_cpus3 progress event, total committed:453625350, progress insts committed: 36039402, IPC: 03.60034
Exiting @ tick 13761316707867 because a thread reached the max instruction count
