Command line:
./runscript_pride.sh lbm RFM10.BR2.4C 4 2017 --rh_defense --rh_mitigation=RFM --rh_rfm_per_trefi=10 --rh_rfm_blast_radius=2 --rh_rfm_maxacts_per_trefi=79
Global frequency set at 1000000000000 ticks per second
RFM details - rfm_act_threshold: 7, blast_radius: 2, delay_per_rfm: 175000 ps. sample_rate: 0.125000
RH Defense config: RFM, Bus Delay: 0, rfms_per_trefi: 10, rfm_act_threshold: 7, blast_radius: 2,rfm_delay_per_act: 45000 ps.
DRAM config: RowsPerBank: 65536, BanksPerRank: 32, RanksPerChannel: 1
warn: Sockets disabled, not accepting gdb connections
warn: CoherentXBar system.cpu0.mmucache.mmubus has no snooping ports attached!
warn: CoherentXBar system.cpu1.mmucache.mmubus has no snooping ports attached!
warn: CoherentXBar system.cpu2.mmucache.mmubus has no snooping ports attached!
warn: CoherentXBar system.cpu3.mmucache.mmubus has no snooping ports attached!
warn: Checkpoints for file descriptors currently do not work.
warn: Checkpoints for file descriptors currently do not work.
warn: Checkpoints for file descriptors currently do not work.
warn: Checkpoints for file descriptors currently do not work.
gem5 Simulator System.  http://gem5.org
gem5 is copyrighted software; use the --copyright option for details.

gem5 version 20.1.0.5
gem5 compiled Jul 12 2024 12:42:38
gem5 started Jul 22 2024 18:19:37
gem5 executing on a07dda8b130c, pid 89745
command line: /home/user/PrIDE/performance/gem5/build/X86/gem5.opt --outdir=/home/user/PrIDE/performance/gem5/stats/pride_multiprogram_16GBmem_250Mn.SPEC2017.C4/RFM10.BR2.4C/lbm /home/user/PrIDE/performance/gem5/configs/example/se_rq_spec_config_multicore.py --redirects /lib64=/home/utils/gcc-6.2.0/lib64 --benchmark=lbm --benchmark_stdout=/home/user/PrIDE/performance/gem5/stats/pride_multiprogram_16GBmem_250Mn.SPEC2017.C4/RFM10.BR2.4C/lbm/lbm.out --benchmark_stderr=/home/user/PrIDE/performance/gem5/stats/pride_multiprogram_16GBmem_250Mn.SPEC2017.C4/RFM10.BR2.4C/lbm/lbm.err --spec-version=2017 --rh_defense --rh_mitigation=RFM --rh_rfm_per_trefi=10 --rh_rfm_blast_radius=2 --rh_rfm_maxacts_per_trefi=79 --num-cpus=4 --mem-size=16GB --mem-type=DDR5_2400_32x4 --mem-ranks=1 --checkpoint-dir=/home/user/PrIDE/performance/gem5/cpts/multiprogram_16GBmem_25Bn.SPEC2017.C4/lbm-1-ref-x86 --checkpoint-restore=25000000000 --at-instruction --cpu-type DerivO3CPU --caches --l2cache --l1d_size=32kB --l1i_size=32kB --l2_size=256kB --l1d_assoc=8 --l1i_assoc=8 --l2_assoc=16 --maxinsts=250000000 --prog-interval=300Hz

info: Standard input is not a terminal, disabling listeners.
Benchmark- 0   lbm
Selected benchmark
--> lbm
CMD: ['/opt/spec2017/benchspec/CPU/519.lbm_r/run/run_base_refrate_gem5_se-m64.0000/lbm_r_base.gem5_se-m64', '3000', 'reference.dat', '0', '0', '/opt/spec2017/benchspec/CPU/519.lbm_r/run/run_base_refrate_gem5_se-m64.0000/100_100_130_ldc.of']
CWD: /opt/spec2017/benchspec/CPU/519.lbm_r/run/run_base_refrate_gem5_se-m64.0000/
Process stdout file: /home/user/PrIDE/performance/gem5/stats/pride_multiprogram_16GBmem_250Mn.SPEC2017.C4/RFM10.BR2.4C/lbm/lbm.out_0
Process stderr file: /home/user/PrIDE/performance/gem5/stats/pride_multiprogram_16GBmem_250Mn.SPEC2017.C4/RFM10.BR2.4C/lbm/lbm.err_0
Benchmark- 1   lbm
Selected benchmark
--> lbm
CMD: ['/opt/spec2017/benchspec/CPU/519.lbm_r/run/run_base_refrate_gem5_se-m64.0000/lbm_r_base.gem5_se-m64', '3000', 'reference.dat', '0', '0', '/opt/spec2017/benchspec/CPU/519.lbm_r/run/run_base_refrate_gem5_se-m64.0000/100_100_130_ldc.of']
CWD: /opt/spec2017/benchspec/CPU/519.lbm_r/run/run_base_refrate_gem5_se-m64.0000/
Process stdout file: /home/user/PrIDE/performance/gem5/stats/pride_multiprogram_16GBmem_250Mn.SPEC2017.C4/RFM10.BR2.4C/lbm/lbm.out_1
Process stderr file: /home/user/PrIDE/performance/gem5/stats/pride_multiprogram_16GBmem_250Mn.SPEC2017.C4/RFM10.BR2.4C/lbm/lbm.err_1
Benchmark- 2   lbm
Selected benchmark
--> lbm
CMD: ['/opt/spec2017/benchspec/CPU/519.lbm_r/run/run_base_refrate_gem5_se-m64.0000/lbm_r_base.gem5_se-m64', '3000', 'reference.dat', '0', '0', '/opt/spec2017/benchspec/CPU/519.lbm_r/run/run_base_refrate_gem5_se-m64.0000/100_100_130_ldc.of']
CWD: /opt/spec2017/benchspec/CPU/519.lbm_r/run/run_base_refrate_gem5_se-m64.0000/
Process stdout file: /home/user/PrIDE/performance/gem5/stats/pride_multiprogram_16GBmem_250Mn.SPEC2017.C4/RFM10.BR2.4C/lbm/lbm.out_2
Process stderr file: /home/user/PrIDE/performance/gem5/stats/pride_multiprogram_16GBmem_250Mn.SPEC2017.C4/RFM10.BR2.4C/lbm/lbm.err_2
Benchmark- 3   lbm
Selected benchmark
--> lbm
CMD: ['/opt/spec2017/benchspec/CPU/519.lbm_r/run/run_base_refrate_gem5_se-m64.0000/lbm_r_base.gem5_se-m64', '3000', 'reference.dat', '0', '0', '/opt/spec2017/benchspec/CPU/519.lbm_r/run/run_base_refrate_gem5_se-m64.0000/100_100_130_ldc.of']
CWD: /opt/spec2017/benchspec/CPU/519.lbm_r/run/run_base_refrate_gem5_se-m64.0000/
Process stdout file: /home/user/PrIDE/performance/gem5/stats/pride_multiprogram_16GBmem_250Mn.SPEC2017.C4/RFM10.BR2.4C/lbm/lbm.out_3
Process stderr file: /home/user/PrIDE/performance/gem5/stats/pride_multiprogram_16GBmem_250Mn.SPEC2017.C4/RFM10.BR2.4C/lbm/lbm.err_3
Workload-0: 
['/opt/spec2017/benchspec/CPU/519.lbm_r/run/run_base_refrate_gem5_se-m64.0000/lbm_r_base.gem5_se-m64', '3000', 'reference.dat', '0', '0', '/opt/spec2017/benchspec/CPU/519.lbm_r/run/run_base_refrate_gem5_se-m64.0000/100_100_130_ldc.of']
Workload-1: 
['/opt/spec2017/benchspec/CPU/519.lbm_r/run/run_base_refrate_gem5_se-m64.0000/lbm_r_base.gem5_se-m64', '3000', 'reference.dat', '0', '0', '/opt/spec2017/benchspec/CPU/519.lbm_r/run/run_base_refrate_gem5_se-m64.0000/100_100_130_ldc.of']
Workload-2: 
['/opt/spec2017/benchspec/CPU/519.lbm_r/run/run_base_refrate_gem5_se-m64.0000/lbm_r_base.gem5_se-m64', '3000', 'reference.dat', '0', '0', '/opt/spec2017/benchspec/CPU/519.lbm_r/run/run_base_refrate_gem5_se-m64.0000/100_100_130_ldc.of']
Workload-3: 
['/opt/spec2017/benchspec/CPU/519.lbm_r/run/run_base_refrate_gem5_se-m64.0000/lbm_r_base.gem5_se-m64', '3000', 'reference.dat', '0', '0', '/opt/spec2017/benchspec/CPU/519.lbm_r/run/run_base_refrate_gem5_se-m64.0000/100_100_130_ldc.of']
defense_enable:  True  detector:  MG  mitigation:  RFM  threshold:  800
mg_entries:  1700
rfm_maxacts_per_trefi:  79 rfm_per_trefi:  10 rfm_blast_radius:  2
Switch at curTick count:10000
warn: membus.master is deprecated. `master` is now called `mem_side_ports`
warn: No dot file generated. Please install pydot to generate the dot file and pdf.
info: Entering event queue @ 13719052537677.  Starting simulation...
info: Entering event queue @ 13719052547677.  Starting simulation...
warn: PowerState: Already in the requested power state, request ignored
Switched CPUS @ tick 13719052547677
switching cpus
**** REAL SIMULATION ****
info: Entering event queue @ 13719052548000.  Starting simulation...
13722385871010: Event_285: system.switch_cpus3 progress event, total committed:2299834, progress insts committed: 2299834, IPC: 0.229753
13722385871010: Event_284: system.switch_cpus2 progress event, total committed:2299798, progress insts committed: 2299798, IPC: 00.22975
13722385871010: Event_283: system.switch_cpus1 progress event, total committed:2304625, progress insts committed: 2304625, IPC: 0.230232
13722385871010: Event_282: system.switch_cpus0 progress event, total committed:2303316, progress insts committed: 2303316, IPC: 0.230101
13725719204343: Event_282: system.switch_cpus0 progress event, total committed:4257556, progress insts committed: 1954240, IPC: 0.195229
13725719204343: Event_283: system.switch_cpus1 progress event, total committed:4257846, progress insts committed: 1953221, IPC: 0.195127
13725719204343: Event_284: system.switch_cpus2 progress event, total committed:4250643, progress insts committed: 1950845, IPC: 0.194889
13725719204343: Event_285: system.switch_cpus3 progress event, total committed:4251994, progress insts committed: 1952160, IPC: 0.195021
13729052537676: Event_285: system.switch_cpus3 progress event, total committed:6192489, progress insts committed: 1940495, IPC: 0.193855
13729052537676: Event_284: system.switch_cpus2 progress event, total committed:6192474, progress insts committed: 1941831, IPC: 0.193989
13729052537676: Event_283: system.switch_cpus1 progress event, total committed:6199190, progress insts committed: 1941344, IPC: 00.19394
13729052537676: Event_282: system.switch_cpus0 progress event, total committed:6197087, progress insts committed: 1939531, IPC: 0.193759
13732385871009: Event_282: system.switch_cpus0 progress event, total committed:7986558, progress insts committed: 1789471, IPC: 0.178768
13732385871009: Event_283: system.switch_cpus1 progress event, total committed:7986800, progress insts committed: 1787610, IPC: 0.178582
13732385871009: Event_284: system.switch_cpus2 progress event, total committed:7972857, progress insts committed: 1780383, IPC: 00.17786
13732385871009: Event_285: system.switch_cpus3 progress event, total committed:7980356, progress insts committed: 1787867, IPC: 0.178608
13735719204342: Event_285: system.switch_cpus3 progress event, total committed:9885646, progress insts committed: 1905290, IPC: 0.190338
13735719204342: Event_284: system.switch_cpus2 progress event, total committed:9875251, progress insts committed: 1902394, IPC: 0.190049
13735719204342: Event_283: system.switch_cpus1 progress event, total committed:9903444, progress insts committed: 1916644, IPC: 0.191473
13735719204342: Event_282: system.switch_cpus0 progress event, total committed:9903202, progress insts committed: 1916644, IPC: 0.191473
13739052537675: Event_282: system.switch_cpus0 progress event, total committed:11823152, progress insts committed: 1919950, IPC: 0.191803
13739052537675: Event_283: system.switch_cpus1 progress event, total committed:11823926, progress insts committed: 1920482, IPC: 0.191856
13739052537675: Event_284: system.switch_cpus2 progress event, total committed:11795130, progress insts committed: 1919879, IPC: 0.191796
13739052537675: Event_285: system.switch_cpus3 progress event, total committed:11802649, progress insts committed: 1917003, IPC: 0.191509
13742385871008: Event_285: system.switch_cpus3 progress event, total committed:13585516, progress insts committed: 1782867, IPC: 0.178108
13742385871008: Event_284: system.switch_cpus2 progress event, total committed:13582524, progress insts committed: 1787394, IPC: 0.178561
13742385871008: Event_283: system.switch_cpus1 progress event, total committed:13610233, progress insts committed: 1786307, IPC: 0.178452
13742385871008: Event_282: system.switch_cpus0 progress event, total committed:13610001, progress insts committed: 1786849, IPC: 0.178506
13745719204341: Event_282: system.switch_cpus0 progress event, total committed:15515262, progress insts committed: 1905261, IPC: 0.190336
13745719204341: Event_283: system.switch_cpus1 progress event, total committed:15515640, progress insts committed: 1905407, IPC: 00.19035
13745719204341: Event_284: system.switch_cpus2 progress event, total committed:15478461, progress insts committed: 1895937, IPC: 0.189404
13745719204341: Event_285: system.switch_cpus3 progress event, total committed:15488041, progress insts committed: 1902525, IPC: 0.190062
13749052537674: Event_285: system.switch_cpus3 progress event, total committed:17270625, progress insts committed: 1782584, IPC: 00.17808
13749052537674: Event_284: system.switch_cpus2 progress event, total committed:17259204, progress insts committed: 1780743, IPC: 0.177896
13749052537674: Event_283: system.switch_cpus1 progress event, total committed:17300700, progress insts committed: 1785060, IPC: 0.178327
13749052537674: Event_282: system.switch_cpus0 progress event, total committed:17300400, progress insts committed: 1785138, IPC: 0.178335
13752385871007: Event_282: system.switch_cpus0 progress event, total committed:19201208, progress insts committed: 1900808, IPC: 0.189891
13752385871007: Event_283: system.switch_cpus1 progress event, total committed:19201535, progress insts committed: 1900835, IPC: 0.189893
13752385871007: Event_284: system.switch_cpus2 progress event, total committed:19167868, progress insts committed: 1908664, IPC: 0.190676
13752385871007: Event_285: system.switch_cpus3 progress event, total committed:19180094, progress insts committed: 1909469, IPC: 0.190756
13755719204340: Event_285: system.switch_cpus3 progress event, total committed:21078242, progress insts committed: 1898148, IPC: 0.189625
13755719204340: Event_284: system.switch_cpus2 progress event, total committed:21067847, progress insts committed: 1899979, IPC: 0.189808
13755719204340: Event_283: system.switch_cpus1 progress event, total committed:21112535, progress insts committed: 1911000, IPC: 0.190909
13755719204340: Event_282: system.switch_cpus0 progress event, total committed:21112327, progress insts committed: 1911119, IPC: 0.190921
13759052537673: Event_282: system.switch_cpus0 progress event, total committed:22883698, progress insts committed: 1771371, IPC: 00.17696
13759052537673: Event_283: system.switch_cpus1 progress event, total committed:22884475, progress insts committed: 1771940, IPC: 0.177017
13759052537673: Event_284: system.switch_cpus2 progress event, total committed:22848497, progress insts committed: 1780650, IPC: 0.177887
13759052537673: Event_285: system.switch_cpus3 progress event, total committed:22850842, progress insts committed: 1772600, IPC: 0.177083
13762385871006: Event_285: system.switch_cpus3 progress event, total committed:24768428, progress insts committed: 1917586, IPC: 0.191567
13762385871006: Event_284: system.switch_cpus2 progress event, total committed:24762038, progress insts committed: 1913541, IPC: 0.191163
13762385871006: Event_283: system.switch_cpus1 progress event, total committed:24800456, progress insts committed: 1915981, IPC: 0.191407
13762385871006: Event_282: system.switch_cpus0 progress event, total committed:24800988, progress insts committed: 1917290, IPC: 0.191537
13765719204339: Event_282: system.switch_cpus0 progress event, total committed:26720484, progress insts committed: 1919496, IPC: 0.191758
13765719204339: Event_283: system.switch_cpus1 progress event, total committed:26720082, progress insts committed: 1919626, IPC: 0.191771
13765719204339: Event_284: system.switch_cpus2 progress event, total committed:26672125, progress insts committed: 1910087, IPC: 0.190818
13765719204339: Event_285: system.switch_cpus3 progress event, total committed:26681988, progress insts committed: 1913560, IPC: 0.191165
13769052537672: Event_285: system.switch_cpus3 progress event, total committed:28457092, progress insts committed: 1775104, IPC: 0.177333
13769052537672: Event_284: system.switch_cpus2 progress event, total committed:28455724, progress insts committed: 1783599, IPC: 0.178182
13769052537672: Event_283: system.switch_cpus1 progress event, total committed:28502872, progress insts committed: 1782790, IPC: 0.178101
13769052537672: Event_282: system.switch_cpus0 progress event, total committed:28502340, progress insts committed: 1781856, IPC: 0.178007
13772385871005: Event_282: system.switch_cpus0 progress event, total committed:30411892, progress insts committed: 1909552, IPC: 0.190764
13772385871005: Event_283: system.switch_cpus1 progress event, total committed:30412427, progress insts committed: 1909555, IPC: 0.190765
13772385871005: Event_284: system.switch_cpus2 progress event, total committed:30370282, progress insts committed: 1914558, IPC: 0.191264
13772385871005: Event_285: system.switch_cpus3 progress event, total committed:30376675, progress insts committed: 1919583, IPC: 0.191766
13775719204338: Event_285: system.switch_cpus3 progress event, total committed:32288926, progress insts committed: 1912251, IPC: 0.191034
13775719204338: Event_284: system.switch_cpus2 progress event, total committed:32280946, progress insts committed: 1910664, IPC: 0.190875
13775719204338: Event_283: system.switch_cpus1 progress event, total committed:32324926, progress insts committed: 1912499, IPC: 0.191059
13775719204338: Event_282: system.switch_cpus0 progress event, total committed:32322822, progress insts committed: 1910930, IPC: 0.190902
13779052537671: Event_282: system.switch_cpus0 progress event, total committed:34101553, progress insts committed: 1778731, IPC: 0.177695
13779052537671: Event_283: system.switch_cpus1 progress event, total committed:34109937, progress insts committed: 1785011, IPC: 0.178323
13779052537671: Event_284: system.switch_cpus2 progress event, total committed:34058269, progress insts committed: 1777323, IPC: 0.177555
13779052537671: Event_285: system.switch_cpus3 progress event, total committed:34059802, progress insts committed: 1770876, IPC: 0.176911
13782385871004: Event_285: system.switch_cpus3 progress event, total committed:35984426, progress insts committed: 1924624, IPC: 00.19227
13782385871004: Event_284: system.switch_cpus2 progress event, total committed:35978042, progress insts committed: 1919773, IPC: 0.191785
13782385871004: Event_283: system.switch_cpus1 progress event, total committed:36019652, progress insts committed: 1909715, IPC: 0.190781
13782385871004: Event_282: system.switch_cpus0 progress event, total committed:36013268, progress insts committed: 1911715, IPC: 00.19098
13785719204337: Event_282: system.switch_cpus0 progress event, total committed:37779550, progress insts committed: 1766282, IPC: 0.176452
13785719204337: Event_283: system.switch_cpus1 progress event, total committed:37785245, progress insts committed: 1765593, IPC: 0.176383
13785719204337: Event_284: system.switch_cpus2 progress event, total committed:37743843, progress insts committed: 1765801, IPC: 0.176404
13785719204337: Event_285: system.switch_cpus3 progress event, total committed:37751578, progress insts committed: 1767152, IPC: 0.176538
13789052537670: Event_285: system.switch_cpus3 progress event, total committed:39660024, progress insts committed: 1908446, IPC: 0.190654
13789052537670: Event_284: system.switch_cpus2 progress event, total committed:39655467, progress insts committed: 1911624, IPC: 0.190971
13789052537670: Event_283: system.switch_cpus1 progress event, total committed:39697309, progress insts committed: 1912064, IPC: 0.191015
13789052537670: Event_282: system.switch_cpus0 progress event, total committed:39689861, progress insts committed: 1910311, IPC: 00.19084
13792385871003: Event_282: system.switch_cpus0 progress event, total committed:41602650, progress insts committed: 1912789, IPC: 0.191088
13792385871003: Event_283: system.switch_cpus1 progress event, total committed:41609808, progress insts committed: 1912499, IPC: 0.191059
13792385871003: Event_284: system.switch_cpus2 progress event, total committed:41566360, progress insts committed: 1910893, IPC: 0.190898
13792385871003: Event_285: system.switch_cpus3 progress event, total committed:41575936, progress insts committed: 1915912, IPC: 000.1914
13795719204336: Event_285: system.switch_cpus3 progress event, total committed:43348121, progress insts committed: 1772185, IPC: 0.177041
13795719204336: Event_284: system.switch_cpus2 progress event, total committed:43339074, progress insts committed: 1772714, IPC: 0.177094
13795719204336: Event_283: system.switch_cpus1 progress event, total committed:43383347, progress insts committed: 1773539, IPC: 0.177177
13795719204336: Event_282: system.switch_cpus0 progress event, total committed:43381721, progress insts committed: 1779071, IPC: 0.177729
13799052537669: Event_282: system.switch_cpus0 progress event, total committed:45296267, progress insts committed: 1914546, IPC: 0.191263
13799052537669: Event_283: system.switch_cpus1 progress event, total committed:45298682, progress insts committed: 1915335, IPC: 0.191342
13799052537669: Event_284: system.switch_cpus2 progress event, total committed:45256553, progress insts committed: 1917479, IPC: 0.191556
13799052537669: Event_285: system.switch_cpus3 progress event, total committed:45261987, progress insts committed: 1913866, IPC: 0.191195
13802385871002: Event_285: system.switch_cpus3 progress event, total committed:47182379, progress insts committed: 1920392, IPC: 0.191847
13802385871002: Event_284: system.switch_cpus2 progress event, total committed:47174894, progress insts committed: 1918341, IPC: 0.191642
13802385871002: Event_283: system.switch_cpus1 progress event, total committed:47218342, progress insts committed: 1919660, IPC: 0.191774
13802385871002: Event_282: system.switch_cpus0 progress event, total committed:47217568, progress insts committed: 1921301, IPC: 0.191938
13805719204335: Event_282: system.switch_cpus0 progress event, total committed:49008660, progress insts committed: 1791092, IPC: 00.17893
13805719204335: Event_283: system.switch_cpus1 progress event, total committed:49009624, progress insts committed: 1791282, IPC: 0.178949
13805719204335: Event_284: system.switch_cpus2 progress event, total committed:48967582, progress insts committed: 1792688, IPC: 00.17909
13805719204335: Event_285: system.switch_cpus3 progress event, total committed:48967820, progress insts committed: 1785441, IPC: 0.178366
13809052537668: Event_285: system.switch_cpus3 progress event, total committed:50904556, progress insts committed: 1936736, IPC: 00.19348
13809052537668: Event_284: system.switch_cpus2 progress event, total committed:50904801, progress insts committed: 1937219, IPC: 0.193528
13809052537668: Event_283: system.switch_cpus1 progress event, total committed:50945659, progress insts committed: 1936035, IPC: 00.19341
13809052537668: Event_282: system.switch_cpus0 progress event, total committed:50941910, progress insts committed: 1933250, IPC: 0.193132
13812385871001: Event_282: system.switch_cpus0 progress event, total committed:52855185, progress insts committed: 1913275, IPC: 0.191136
13812385871001: Event_283: system.switch_cpus1 progress event, total committed:52858381, progress insts committed: 1912722, IPC: 0.191081
13812385871001: Event_284: system.switch_cpus2 progress event, total committed:52819963, progress insts committed: 1915162, IPC: 0.191325
13812385871001: Event_285: system.switch_cpus3 progress event, total committed:52818899, progress insts committed: 1914343, IPC: 0.191243
13815719204334: Event_285: system.switch_cpus3 progress event, total committed:54584341, progress insts committed: 1765442, IPC: 0.176368
13815719204334: Event_284: system.switch_cpus2 progress event, total committed:54585489, progress insts committed: 1765526, IPC: 0.176376
13815719204334: Event_283: system.switch_cpus1 progress event, total committed:54627544, progress insts committed: 1769163, IPC: 0.176739
13815719204334: Event_282: system.switch_cpus0 progress event, total committed:54624355, progress insts committed: 1769170, IPC: 00.17674
13819052537667: Event_282: system.switch_cpus0 progress event, total committed:56541651, progress insts committed: 1917296, IPC: 0.191538
13819052537667: Event_283: system.switch_cpus1 progress event, total committed:56544060, progress insts committed: 1916516, IPC: 00.19146
13819052537667: Event_284: system.switch_cpus2 progress event, total committed:56507770, progress insts committed: 1922281, IPC: 0.192036
13819052537667: Event_285: system.switch_cpus3 progress event, total committed:56501631, progress insts committed: 1917290, IPC: 0.191537
13822385871000: Event_285: system.switch_cpus3 progress event, total committed:58276228, progress insts committed: 1774597, IPC: 0.177282
13822385871000: Event_284: system.switch_cpus2 progress event, total committed:58278683, progress insts committed: 1770913, IPC: 0.176914
13822385871000: Event_283: system.switch_cpus1 progress event, total committed:58322384, progress insts committed: 1778324, IPC: 0.177655
13822385871000: Event_282: system.switch_cpus0 progress event, total committed:58321565, progress insts committed: 1779914, IPC: 0.177813
13825719204333: Event_282: system.switch_cpus0 progress event, total committed:60260422, progress insts committed: 1938857, IPC: 0.193692
13825719204333: Event_283: system.switch_cpus1 progress event, total committed:60260664, progress insts committed: 1938280, IPC: 0.193634
13825719204333: Event_284: system.switch_cpus2 progress event, total committed:60217748, progress insts committed: 1939065, IPC: 0.193713
13825719204333: Event_285: system.switch_cpus3 progress event, total committed:60216684, progress insts committed: 1940456, IPC: 0.193852
13829052537666: Event_285: system.switch_cpus3 progress event, total committed:62156573, progress insts committed: 1939889, IPC: 0.193795
13829052537666: Event_284: system.switch_cpus2 progress event, total committed:62156850, progress insts committed: 1939102, IPC: 0.193716
13829052537666: Event_283: system.switch_cpus1 progress event, total committed:62196042, progress insts committed: 1935378, IPC: 0.193344
13829052537666: Event_282: system.switch_cpus0 progress event, total committed:62198992, progress insts committed: 1938570, IPC: 0.193663
13832385870999: Event_282: system.switch_cpus0 progress event, total committed:63984764, progress insts committed: 1785772, IPC: 0.178399
13832385870999: Event_283: system.switch_cpus1 progress event, total committed:63984764, progress insts committed: 1788722, IPC: 0.178693
13832385870999: Event_284: system.switch_cpus2 progress event, total committed:63941268, progress insts committed: 1784418, IPC: 0.178263
13832385870999: Event_285: system.switch_cpus3 progress event, total committed:63938611, progress insts committed: 1782038, IPC: 0.178026
13835719204332: Event_285: system.switch_cpus3 progress event, total committed:65886222, progress insts committed: 1947611, IPC: 0.194566
13835719204332: Event_284: system.switch_cpus2 progress event, total committed:65885980, progress insts committed: 1944712, IPC: 0.194277
13835719204332: Event_283: system.switch_cpus1 progress event, total committed:65925175, progress insts committed: 1940411, IPC: 0.193847
13835719204332: Event_282: system.switch_cpus0 progress event, total committed:65931024, progress insts committed: 1946260, IPC: 0.194431
13839052537665: Event_282: system.switch_cpus0 progress event, total committed:67842465, progress insts committed: 1911441, IPC: 0.190953
13839052537665: Event_283: system.switch_cpus1 progress event, total committed:67838496, progress insts committed: 1913321, IPC: 0.191141
13839052537665: Event_284: system.switch_cpus2 progress event, total committed:67800855, progress insts committed: 1914875, IPC: 0.191296
13839052537665: Event_285: system.switch_cpus3 progress event, total committed:67800855, progress insts committed: 1914633, IPC: 0.191272
13842385870998: Event_285: system.switch_cpus3 progress event, total committed:69592766, progress insts committed: 1791911, IPC: 0.179012
13842385870998: Event_284: system.switch_cpus2 progress event, total committed:69592489, progress insts committed: 1791634, IPC: 0.178984
13842385870998: Event_283: system.switch_cpus1 progress event, total committed:69638632, progress insts committed: 1800136, IPC: 0.179834
13842385870998: Event_282: system.switch_cpus0 progress event, total committed:69639164, progress insts committed: 1796699, IPC: 00.17949
13845719204331: Event_282: system.switch_cpus0 progress event, total committed:71562016, progress insts committed: 1922852, IPC: 0.192093
13845719204331: Event_283: system.switch_cpus1 progress event, total committed:71564686, progress insts committed: 1926054, IPC: 0.192413
13845719204331: Event_284: system.switch_cpus2 progress event, total committed:71523356, progress insts committed: 1930867, IPC: 0.192894
13845719204331: Event_285: system.switch_cpus3 progress event, total committed:71523601, progress insts committed: 1930835, IPC: 00.19289
13849052537664: Event_285: system.switch_cpus3 progress event, total committed:73436922, progress insts committed: 1913321, IPC: 0.191141
13849052537664: Event_284: system.switch_cpus2 progress event, total committed:73436632, progress insts committed: 1913276, IPC: 0.191136
13849052537664: Event_283: system.switch_cpus1 progress event, total committed:73481812, progress insts committed: 1917126, IPC: 0.191521
13849052537664: Event_282: system.switch_cpus0 progress event, total committed:73481806, progress insts committed: 1919790, IPC: 0.191787
13852385870997: Event_282: system.switch_cpus0 progress event, total committed:75280796, progress insts committed: 1798990, IPC: 0.179719
13852385870997: Event_283: system.switch_cpus1 progress event, total committed:75281860, progress insts committed: 1800048, IPC: 0.179825
13852385870997: Event_284: system.switch_cpus2 progress event, total committed:75238122, progress insts committed: 1801490, IPC: 0.179969
13852385870997: Event_285: system.switch_cpus3 progress event, total committed:75239186, progress insts committed: 1802264, IPC: 0.180046
13855719204330: Event_285: system.switch_cpus3 progress event, total committed:77183608, progress insts committed: 1944422, IPC: 0.194248
13855719204330: Event_284: system.switch_cpus2 progress event, total committed:77182785, progress insts committed: 1944663, IPC: 0.194272
13855719204330: Event_283: system.switch_cpus1 progress event, total committed:77226374, progress insts committed: 1944514, IPC: 0.194257
13855719204330: Event_282: system.switch_cpus0 progress event, total committed:77225992, progress insts committed: 1945196, IPC: 0.194325
13859052537663: Event_282: system.switch_cpus0 progress event, total committed:79009926, progress insts committed: 1783934, IPC: 0.178215
13859052537663: Event_283: system.switch_cpus1 progress event, total committed:79017080, progress insts committed: 1790706, IPC: 0.178892
13859052537663: Event_284: system.switch_cpus2 progress event, total committed:78970976, progress insts committed: 1788191, IPC: 00.17864
13859052537663: Event_285: system.switch_cpus3 progress event, total committed:78971218, progress insts committed: 1787610, IPC: 0.178582
13862385870996: Event_285: system.switch_cpus3 progress event, total committed:80902343, progress insts committed: 1931125, IPC: 0.192919
13862385870996: Event_284: system.switch_cpus2 progress event, total committed:80903694, progress insts committed: 1932718, IPC: 0.193079
13862385870996: Event_283: system.switch_cpus1 progress event, total committed:80942357, progress insts committed: 1925277, IPC: 0.192335
13862385870996: Event_282: system.switch_cpus0 progress event, total committed:80936502, progress insts committed: 1926576, IPC: 0.192465
13865719204329: Event_282: system.switch_cpus0 progress event, total committed:82857217, progress insts committed: 1920715, IPC: 0.191879
13865719204329: Event_283: system.switch_cpus1 progress event, total committed:82857980, progress insts committed: 1915623, IPC: 0.191371
13865719204329: Event_284: system.switch_cpus2 progress event, total committed:82816938, progress insts committed: 1913244, IPC: 0.191133
13865719204329: Event_285: system.switch_cpus3 progress event, total committed:82815370, progress insts committed: 1913027, IPC: 0.191111
13869052537662: Event_285: system.switch_cpus3 progress event, total committed:84595584, progress insts committed: 1780214, IPC: 0.177843
13869052537662: Event_284: system.switch_cpus2 progress event, total committed:84596116, progress insts committed: 1779178, IPC: 00.17774
13869052537662: Event_283: system.switch_cpus1 progress event, total committed:84644528, progress insts committed: 1786548, IPC: 0.178476
13869052537662: Event_282: system.switch_cpus0 progress event, total committed:84637325, progress insts committed: 1780108, IPC: 0.177833
13872385870995: Event_282: system.switch_cpus0 progress event, total committed:86536814, progress insts committed: 1899489, IPC: 0.189759
13872385870995: Event_283: system.switch_cpus1 progress event, total committed:86545039, progress insts committed: 1900511, IPC: 0.189861
13872385870995: Event_284: system.switch_cpus2 progress event, total committed:86509036, progress insts committed: 1912920, IPC: 0.191101
13872385870995: Event_285: system.switch_cpus3 progress event, total committed:86507972, progress insts committed: 1912388, IPC: 0.191048
13875719204328: Event_285: system.switch_cpus3 progress event, total committed:88408770, progress insts committed: 1900798, IPC: 00.18989
13875719204328: Event_284: system.switch_cpus2 progress event, total committed:88410366, progress insts committed: 1901330, IPC: 0.189943
13875719204328: Event_283: system.switch_cpus1 progress event, total committed:88457182, progress insts committed: 1912143, IPC: 0.191023
13875719204328: Event_282: system.switch_cpus0 progress event, total committed:88447800, progress insts committed: 1910986, IPC: 0.190908
13879052537661: Event_282: system.switch_cpus0 progress event, total committed:90222206, progress insts committed: 1774406, IPC: 0.177263
13879052537661: Event_283: system.switch_cpus1 progress event, total committed:90229122, progress insts committed: 1771940, IPC: 0.177017
13879052537661: Event_284: system.switch_cpus2 progress event, total committed:90192832, progress insts committed: 1782466, IPC: 0.178068
13879052537661: Event_285: system.switch_cpus3 progress event, total committed:90188044, progress insts committed: 1779274, IPC: 0.177749
13882385870994: Event_285: system.switch_cpus3 progress event, total committed:92107175, progress insts committed: 1919131, IPC: 0.191721
13882385870994: Event_284: system.switch_cpus2 progress event, total committed:92110618, progress insts committed: 1917786, IPC: 0.191587
13882385870994: Event_283: system.switch_cpus1 progress event, total committed:92145880, progress insts committed: 1916758, IPC: 0.191484
13882385870994: Event_282: system.switch_cpus0 progress event, total committed:92139496, progress insts committed: 1917290, IPC: 0.191537
13885719204327: Event_282: system.switch_cpus0 progress event, total committed:94010312, progress insts committed: 1870816, IPC: 0.186895
13885719204327: Event_283: system.switch_cpus1 progress event, total committed:94010368, progress insts committed: 1864488, IPC: 0.186262
13885719204327: Event_284: system.switch_cpus2 progress event, total committed:94009928, progress insts committed: 1899310, IPC: 0.189741
13885719204327: Event_285: system.switch_cpus3 progress event, total committed:94009884, progress insts committed: 1902709, IPC: 0.190081
13889052537660: Event_285: system.switch_cpus3 progress event, total committed:95764126, progress insts committed: 1754242, IPC: 0.175249
13889052537660: Event_284: system.switch_cpus2 progress event, total committed:95772675, progress insts committed: 1762747, IPC: 0.176098
13889052537660: Event_283: system.switch_cpus1 progress event, total committed:95801190, progress insts committed: 1790822, IPC: 0.178903
13889052537660: Event_282: system.switch_cpus0 progress event, total committed:95798820, progress insts committed: 1788508, IPC: 0.178672
13892385870993: Event_282: system.switch_cpus0 progress event, total committed:97715464, progress insts committed: 1916644, IPC: 0.191473
13892385870993: Event_283: system.switch_cpus1 progress event, total committed:97715501, progress insts committed: 1914311, IPC: 00.19124
13892385870993: Event_284: system.switch_cpus2 progress event, total committed:97678930, progress insts committed: 1906255, IPC: 0.190435
13892385870993: Event_285: system.switch_cpus3 progress event, total committed:97676756, progress insts committed: 1912630, IPC: 0.191072
13895719204326: Event_285: system.switch_cpus3 progress event, total committed:99459336, progress insts committed: 1782580, IPC: 00.17808
13895719204326: Event_284: system.switch_cpus2 progress event, total committed:99464414, progress insts committed: 1785484, IPC: 00.17837
13895719204326: Event_283: system.switch_cpus1 progress event, total committed:99500127, progress insts committed: 1784626, IPC: 0.178284
13895719204326: Event_282: system.switch_cpus0 progress event, total committed:99499640, progress insts committed: 1784176, IPC: 0.178239
13899052537659: Event_282: system.switch_cpus0 progress event, total committed:101402821, progress insts committed: 1903181, IPC: 0.190128
13899052537659: Event_283: system.switch_cpus1 progress event, total committed:101406290, progress insts committed: 1906163, IPC: 0.190426
13899052537659: Event_284: system.switch_cpus2 progress event, total committed:101372660, progress insts committed: 1908246, IPC: 0.190634
13899052537659: Event_285: system.switch_cpus3 progress event, total committed:101364922, progress insts committed: 1905586, IPC: 0.190368
13902385870992: Event_285: system.switch_cpus3 progress event, total committed:103274408, progress insts committed: 1909486, IPC: 0.190758
13902385870992: Event_284: system.switch_cpus2 progress event, total committed:103280374, progress insts committed: 1907714, IPC: 0.190581
13902385870992: Event_283: system.switch_cpus1 progress event, total committed:103315731, progress insts committed: 1909441, IPC: 0.190753
13902385870992: Event_282: system.switch_cpus0 progress event, total committed:103313603, progress insts committed: 1910782, IPC: 0.190887
13905719204325: Event_282: system.switch_cpus0 progress event, total committed:105089022, progress insts committed: 1775419, IPC: 0.177364
13905719204325: Event_283: system.switch_cpus1 progress event, total committed:105094584, progress insts committed: 1778853, IPC: 0.177707
13905719204325: Event_284: system.switch_cpus2 progress event, total committed:105058584, progress insts committed: 1778210, IPC: 0.177643
13905719204325: Event_285: system.switch_cpus3 progress event, total committed:105051136, progress insts committed: 1776728, IPC: 0.177495
13909052537658: Event_285: system.switch_cpus3 progress event, total committed:106962816, progress insts committed: 1911680, IPC: 0.190977
13909052537658: Event_284: system.switch_cpus2 progress event, total committed:106971328, progress insts committed: 1912744, IPC: 0.191083
13909052537658: Event_283: system.switch_cpus1 progress event, total committed:107006881, progress insts committed: 1912297, IPC: 0.191038
13909052537658: Event_282: system.switch_cpus0 progress event, total committed:107002271, progress insts committed: 1913249, IPC: 0.191134
13912385870991: Event_282: system.switch_cpus0 progress event, total committed:108918700, progress insts committed: 1916429, IPC: 0.191451
13912385870991: Event_283: system.switch_cpus1 progress event, total committed:108925871, progress insts committed: 1918990, IPC: 0.191707
13912385870991: Event_284: system.switch_cpus2 progress event, total committed:108882698, progress insts committed: 1911370, IPC: 0.190946
13912385870991: Event_285: system.switch_cpus3 progress event, total committed:108879992, progress insts committed: 1917176, IPC: 0.191526
13915719204324: Event_285: system.switch_cpus3 progress event, total committed:110652754, progress insts committed: 1772762, IPC: 0.177099
13915719204324: Event_284: system.switch_cpus2 progress event, total committed:110655659, progress insts committed: 1772961, IPC: 0.177119
13915719204324: Event_283: system.switch_cpus1 progress event, total committed:110694364, progress insts committed: 1768493, IPC: 0.176672
13915719204324: Event_282: system.switch_cpus0 progress event, total committed:110686629, progress insts committed: 1767929, IPC: 0.176616
13919052537657: Event_282: system.switch_cpus0 progress event, total committed:112585717, progress insts committed: 1899088, IPC: 0.189719
13919052537657: Event_283: system.switch_cpus1 progress event, total committed:112593752, progress insts committed: 1899388, IPC: 0.189749
13919052537657: Event_284: system.switch_cpus2 progress event, total committed:112551632, progress insts committed: 1895973, IPC: 0.189408
13919052537657: Event_285: system.switch_cpus3 progress event, total committed:112551502, progress insts committed: 1898748, IPC: 0.189685
13922385870990: Event_285: system.switch_cpus3 progress event, total committed:114459256, progress insts committed: 1907754, IPC: 0.190585
13922385870990: Event_284: system.switch_cpus2 progress event, total committed:114461826, progress insts committed: 1910194, IPC: 0.190828
13922385870990: Event_283: system.switch_cpus1 progress event, total committed:114498506, progress insts committed: 1904754, IPC: 0.190285
13922385870990: Event_282: system.switch_cpus0 progress event, total committed:114489462, progress insts committed: 1903745, IPC: 0.190184
13925719204323: Event_282: system.switch_cpus0 progress event, total committed:116273300, progress insts committed: 1783838, IPC: 0.178205
13925719204323: Event_283: system.switch_cpus1 progress event, total committed:116281331, progress insts committed: 1782825, IPC: 0.178104
13925719204323: Event_284: system.switch_cpus2 progress event, total committed:116246392, progress insts committed: 1784566, IPC: 0.178278
13925719204323: Event_285: system.switch_cpus3 progress event, total committed:116246914, progress insts committed: 1787658, IPC: 0.178587
13929052537656: Event_285: system.switch_cpus3 progress event, total committed:118159958, progress insts committed: 1913044, IPC: 0.191113
13929052537656: Event_284: system.switch_cpus2 progress event, total committed:118159139, progress insts committed: 1912747, IPC: 0.191083
13929052537656: Event_283: system.switch_cpus1 progress event, total committed:118205178, progress insts committed: 1923847, IPC: 0.192192
13929052537656: Event_282: system.switch_cpus0 progress event, total committed:118193474, progress insts committed: 1920174, IPC: 0.191825
13932385870989: Event_282: system.switch_cpus0 progress event, total committed:119969175, progress insts committed: 1775701, IPC: 0.177393
13932385870989: Event_283: system.switch_cpus1 progress event, total committed:119979488, progress insts committed: 1774310, IPC: 0.177254
13932385870989: Event_284: system.switch_cpus2 progress event, total committed:119942180, progress insts committed: 1783041, IPC: 0.178126
13932385870989: Event_285: system.switch_cpus3 progress event, total committed:119941689, progress insts committed: 1781731, IPC: 0.177995
13935719204322: Event_285: system.switch_cpus3 progress event, total committed:121839498, progress insts committed: 1897809, IPC: 0.189591
13935719204322: Event_284: system.switch_cpus2 progress event, total committed:121840030, progress insts committed: 1897850, IPC: 0.189595
13935719204322: Event_283: system.switch_cpus1 progress event, total committed:121874932, progress insts committed: 1895444, IPC: 0.189355
13935719204322: Event_282: system.switch_cpus0 progress event, total committed:121867932, progress insts committed: 1898757, IPC: 0.189686
13939052537655: Event_282: system.switch_cpus0 progress event, total committed:123769266, progress insts committed: 1901334, IPC: 0.189943
13939052537655: Event_283: system.switch_cpus1 progress event, total committed:123779906, progress insts committed: 1904974, IPC: 0.190307
13939052537655: Event_284: system.switch_cpus2 progress event, total committed:123754014, progress insts committed: 1913984, IPC: 0.191207
13939052537655: Event_285: system.switch_cpus3 progress event, total committed:123754014, progress insts committed: 1914516, IPC: 00.19126
13942385870988: Event_285: system.switch_cpus3 progress event, total committed:125517220, progress insts committed: 1763206, IPC: 0.176144
13942385870988: Event_284: system.switch_cpus2 progress event, total committed:125523294, progress insts committed: 1769280, IPC: 0.176751
13942385870988: Event_283: system.switch_cpus1 progress event, total committed:125550008, progress insts committed: 1770102, IPC: 0.176833
13942385870988: Event_282: system.switch_cpus0 progress event, total committed:125544230, progress insts committed: 1774964, IPC: 0.177319
13945719204321: Event_282: system.switch_cpus0 progress event, total committed:127458917, progress insts committed: 1914687, IPC: 0.191277
13945719204321: Event_283: system.switch_cpus1 progress event, total committed:127468780, progress insts committed: 1918772, IPC: 0.191685
13945719204321: Event_284: system.switch_cpus2 progress event, total committed:127431540, progress insts committed: 1908246, IPC: 0.190634
13945719204321: Event_285: system.switch_cpus3 progress event, total committed:127425422, progress insts committed: 1908202, IPC: 0.190629
13949052537654: Event_285: system.switch_cpus3 progress event, total committed:129335948, progress insts committed: 1910526, IPC: 0.190862
13949052537654: Event_284: system.switch_cpus2 progress event, total committed:129342864, progress insts committed: 1911324, IPC: 0.190941
13949052537654: Event_283: system.switch_cpus1 progress event, total committed:129368224, progress insts committed: 1899444, IPC: 0.189754
13949052537654: Event_282: system.switch_cpus0 progress event, total committed:129358672, progress insts committed: 1899755, IPC: 0.189786
13952385870987: Event_282: system.switch_cpus0 progress event, total committed:131122784, progress insts committed: 1764112, IPC: 0.176235
13952385870987: Event_283: system.switch_cpus1 progress event, total committed:131132602, progress insts committed: 1764378, IPC: 0.176261
13952385870987: Event_284: system.switch_cpus2 progress event, total committed:131099376, progress insts committed: 1756512, IPC: 0.175476
13952385870987: Event_285: system.switch_cpus3 progress event, total committed:131095897, progress insts committed: 1759949, IPC: 0.175819
13955719204320: Event_285: system.switch_cpus3 progress event, total committed:132998719, progress insts committed: 1902822, IPC: 0.190092
13955719204320: Event_284: system.switch_cpus2 progress event, total committed:133002433, progress insts committed: 1903057, IPC: 0.190115
13955719204320: Event_283: system.switch_cpus1 progress event, total committed:133027384, progress insts committed: 1894782, IPC: 0.189289
13955719204320: Event_282: system.switch_cpus0 progress event, total committed:133026370, progress insts committed: 1903586, IPC: 0.190168
13959052537653: Event_282: system.switch_cpus0 progress event, total committed:134922915, progress insts committed: 1896545, IPC: 0.189465
13959052537653: Event_283: system.switch_cpus1 progress event, total committed:134932491, progress insts committed: 1905107, IPC: 00.19032
13959052537653: Event_284: system.switch_cpus2 progress event, total committed:134908369, progress insts committed: 1905936, IPC: 0.190403
13959052537653: Event_285: system.switch_cpus3 progress event, total committed:134907811, progress insts committed: 1909092, IPC: 0.190718
13962385870986: Event_285: system.switch_cpus3 progress event, total committed:136664949, progress insts committed: 1757138, IPC: 0.175538
13962385870986: Event_284: system.switch_cpus2 progress event, total committed:136673748, progress insts committed: 1765379, IPC: 0.176361
13962385870986: Event_283: system.switch_cpus1 progress event, total committed:136696284, progress insts committed: 1763793, IPC: 0.176203
13962385870986: Event_282: system.switch_cpus0 progress event, total committed:136692327, progress insts committed: 1769412, IPC: 0.176764
13965719204319: Event_282: system.switch_cpus0 progress event, total committed:138587024, progress insts committed: 1894697, IPC: 00.18928
13965719204319: Event_283: system.switch_cpus1 progress event, total committed:138598511, progress insts committed: 1902227, IPC: 0.190032
13965719204319: Event_284: system.switch_cpus2 progress event, total committed:138576848, progress insts committed: 1903100, IPC: 00.19012
13965719204319: Event_285: system.switch_cpus3 progress event, total committed:138569357, progress insts committed: 1904408, IPC: 00.19025
13969052537652: Event_285: system.switch_cpus3 progress event, total committed:140338634, progress insts committed: 1769277, IPC: 0.176751
13969052537652: Event_284: system.switch_cpus2 progress event, total committed:140348745, progress insts committed: 1771897, IPC: 0.177013
13969052537652: Event_283: system.switch_cpus1 progress event, total committed:140366425, progress insts committed: 1767914, IPC: 0.176615
13969052537652: Event_282: system.switch_cpus0 progress event, total committed:140361800, progress insts committed: 1774776, IPC: 000.1773
13972385870985: Event_282: system.switch_cpus0 progress event, total committed:142268450, progress insts committed: 1906650, IPC: 0.190474
13972385870985: Event_283: system.switch_cpus1 progress event, total committed:142285716, progress insts committed: 1919291, IPC: 0.191737
13972385870985: Event_284: system.switch_cpus2 progress event, total committed:142255402, progress insts committed: 1906657, IPC: 0.190475
13972385870985: Event_285: system.switch_cpus3 progress event, total committed:142246321, progress insts committed: 1907687, IPC: 0.190578
13975719204318: Event_285: system.switch_cpus3 progress event, total committed:144168315, progress insts committed: 1921994, IPC: 0.192007
13975719204318: Event_284: system.switch_cpus2 progress event, total committed:144175518, progress insts committed: 1920116, IPC: 00.19182
13975719204318: Event_283: system.switch_cpus1 progress event, total committed:144195861, progress insts committed: 1910145, IPC: 0.190823
13975719204318: Event_282: system.switch_cpus0 progress event, total committed:144179550, progress insts committed: 1911100, IPC: 0.190919
13979052537651: Event_282: system.switch_cpus0 progress event, total committed:145956502, progress insts committed: 1776952, IPC: 0.177518
13979052537651: Event_283: system.switch_cpus1 progress event, total committed:145967471, progress insts committed: 1771610, IPC: 0.176984
13979052537651: Event_284: system.switch_cpus2 progress event, total committed:145944798, progress insts committed: 1769280, IPC: 0.176751
13979052537651: Event_285: system.switch_cpus3 progress event, total committed:145935222, progress insts committed: 1766907, IPC: 0.176514
13982385870984: Event_285: system.switch_cpus3 progress event, total committed:147847932, progress insts committed: 1912710, IPC: 00.19108
13982385870984: Event_284: system.switch_cpus2 progress event, total committed:147851690, progress insts committed: 1906892, IPC: 0.190499
13982385870984: Event_283: system.switch_cpus1 progress event, total committed:147881772, progress insts committed: 1914301, IPC: 0.191239
13982385870984: Event_282: system.switch_cpus0 progress event, total committed:147863152, progress insts committed: 1906650, IPC: 0.190474
13985719204317: Event_282: system.switch_cpus0 progress event, total committed:149777136, progress insts committed: 1913984, IPC: 0.191207
13985719204317: Event_283: system.switch_cpus1 progress event, total committed:149788132, progress insts committed: 1906360, IPC: 0.190445
13985719204317: Event_284: system.switch_cpus2 progress event, total committed:149765964, progress insts committed: 1914274, IPC: 0.191236
13985719204317: Event_285: system.switch_cpus3 progress event, total committed:149755838, progress insts committed: 1907906, IPC: 000.1906
13989052537650: Event_285: system.switch_cpus3 progress event, total committed:151536550, progress insts committed: 1780712, IPC: 0.177893
13989052537650: Event_284: system.switch_cpus2 progress event, total committed:151543224, progress insts committed: 1777260, IPC: 0.177548
13989052537650: Event_283: system.switch_cpus1 progress event, total committed:151569469, progress insts committed: 1781337, IPC: 0.177956
13989052537650: Event_282: system.switch_cpus0 progress event, total committed:151553332, progress insts committed: 1776196, IPC: 0.177442
13992385870983: Event_282: system.switch_cpus0 progress event, total committed:153454662, progress insts committed: 1901330, IPC: 0.189943
13992385870983: Event_283: system.switch_cpus1 progress event, total committed:153476688, progress insts committed: 1907219, IPC: 0.190531
13992385870983: Event_284: system.switch_cpus2 progress event, total committed:153450074, progress insts committed: 1906850, IPC: 0.190494
13992385870983: Event_285: system.switch_cpus3 progress event, total committed:153449817, progress insts committed: 1913267, IPC: 0.191135
13995719204316: Event_285: system.switch_cpus3 progress event, total committed:155346834, progress insts committed: 1897017, IPC: 0.189512
13995719204316: Event_284: system.switch_cpus2 progress event, total committed:155355059, progress insts committed: 1904985, IPC: 0.190308
13995719204316: Event_283: system.switch_cpus1 progress event, total committed:155383202, progress insts committed: 1906514, IPC: 0.190461
13995719204316: Event_282: system.switch_cpus0 progress event, total committed:155365986, progress insts committed: 1911324, IPC: 0.190941
13999052537649: Event_282: system.switch_cpus0 progress event, total committed:157142714, progress insts committed: 1776728, IPC: 0.177495
13999052537649: Event_283: system.switch_cpus1 progress event, total committed:157155724, progress insts committed: 1772522, IPC: 0.177075
13999052537649: Event_284: system.switch_cpus2 progress event, total committed:157134202, progress insts committed: 1779143, IPC: 0.177736
13999052537649: Event_285: system.switch_cpus3 progress event, total committed:157124094, progress insts committed: 1777260, IPC: 0.177548
14002385870982: Event_285: system.switch_cpus3 progress event, total committed:159037788, progress insts committed: 1913694, IPC: 0.191178
14002385870982: Event_284: system.switch_cpus2 progress event, total committed:159048731, progress insts committed: 1914529, IPC: 0.191261
14002385870982: Event_283: system.switch_cpus1 progress event, total committed:159057344, progress insts committed: 1901620, IPC: 0.189972
14002385870982: Event_282: system.switch_cpus0 progress event, total committed:159052232, progress insts committed: 1909518, IPC: 0.190761
14005719204315: Event_282: system.switch_cpus0 progress event, total committed:160838746, progress insts committed: 1786514, IPC: 0.178473
14005719204315: Event_283: system.switch_cpus1 progress event, total committed:160840530, progress insts committed: 1783186, IPC: 00.17814
14005719204315: Event_284: system.switch_cpus2 progress event, total committed:160829183, progress insts committed: 1780452, IPC: 0.177867
14005719204315: Event_285: system.switch_cpus3 progress event, total committed:160813210, progress insts committed: 1775422, IPC: 0.177365
14009052537648: Event_285: system.switch_cpus3 progress event, total committed:162721644, progress insts committed: 1908434, IPC: 0.190653
14009052537648: Event_284: system.switch_cpus2 progress event, total committed:162735526, progress insts committed: 1906343, IPC: 0.190444
14009052537648: Event_283: system.switch_cpus1 progress event, total committed:162754465, progress insts committed: 1913935, IPC: 0.191202
14009052537648: Event_282: system.switch_cpus0 progress event, total committed:162748056, progress insts committed: 1909310, IPC: 00.19074
14012385870981: Event_282: system.switch_cpus0 progress event, total committed:164667406, progress insts committed: 1919350, IPC: 0.191743
14012385870981: Event_283: system.switch_cpus1 progress event, total committed:164675986, progress insts committed: 1921521, IPC: 00.19196
14012385870981: Event_284: system.switch_cpus2 progress event, total committed:164656547, progress insts committed: 1921021, IPC: 00.19191
14012385870981: Event_285: system.switch_cpus3 progress event, total committed:164648450, progress insts committed: 1926806, IPC: 0.192488
14015719204314: Event_285: system.switch_cpus3 progress event, total committed:166351792, progress insts committed: 1703342, IPC: 0.170164
14015719204314: Event_284: system.switch_cpus2 progress event, total committed:166369296, progress insts committed: 1712749, IPC: 0.171104
14015719204314: Event_283: system.switch_cpus1 progress event, total committed:166379678, progress insts committed: 1703692, IPC: 0.170199
14015719204314: Event_282: system.switch_cpus0 progress event, total committed:166371630, progress insts committed: 1704224, IPC: 0.170252
14019052537647: Event_282: system.switch_cpus0 progress event, total committed:167980607, progress insts committed: 1608977, IPC: 0.160737
14019052537647: Event_283: system.switch_cpus1 progress event, total committed:167987536, progress insts committed: 1607858, IPC: 0.160625
14019052537647: Event_284: system.switch_cpus2 progress event, total committed:167973588, progress insts committed: 1604292, IPC: 0.160269
14019052537647: Event_285: system.switch_cpus3 progress event, total committed:167952156, progress insts committed: 1600364, IPC: 0.159876
14022385870980: Event_285: system.switch_cpus3 progress event, total committed:169561458, progress insts committed: 1609302, IPC: 0.160769
14022385870980: Event_284: system.switch_cpus2 progress event, total committed:169580698, progress insts committed: 1607110, IPC: 00.16055
14022385870980: Event_283: system.switch_cpus1 progress event, total committed:169596948, progress insts committed: 1609412, IPC: 00.16078
14022385870980: Event_282: system.switch_cpus0 progress event, total committed:169588906, progress insts committed: 1608299, IPC: 0.160669
14025719204313: Event_282: system.switch_cpus0 progress event, total committed:170373716, progress insts committed: 784810, IPC: 0.0784025
14025719204313: Event_283: system.switch_cpus1 progress event, total committed:170373735, progress insts committed: 776787, IPC: 0.077601
14025719204313: Event_284: system.switch_cpus2 progress event, total committed:170373582, progress insts committed: 792884, IPC: 0.0792091
14025719204313: Event_285: system.switch_cpus3 progress event, total committed:170373333, progress insts committed: 811875, IPC: 0.0811063
14029052537646: Event_285: system.switch_cpus3 progress event, total committed:170526171, progress insts committed: 152838, IPC: 0.0152685
14029052537646: Event_284: system.switch_cpus2 progress event, total committed:170526442, progress insts committed: 152860, IPC: 0.0152707
14029052537646: Event_283: system.switch_cpus1 progress event, total committed:170526611, progress insts committed: 152876, IPC: 0.0152723
14029052537646: Event_282: system.switch_cpus0 progress event, total committed:170526570, progress insts committed: 152854, IPC: 0.0152701
14032385870979: Event_282: system.switch_cpus0 progress event, total committed:170679145, progress insts committed: 152575, IPC: 0.0152422
14032385870979: Event_283: system.switch_cpus1 progress event, total committed:170679159, progress insts committed: 152548, IPC: 0.0152395
14032385870979: Event_284: system.switch_cpus2 progress event, total committed:170678972, progress insts committed: 152530, IPC: 0.0152377
14032385870979: Event_285: system.switch_cpus3 progress event, total committed:170678732, progress insts committed: 152561, IPC: 0.0152408
14035719204312: Event_285: system.switch_cpus3 progress event, total committed:170831433, progress insts committed: 152701, IPC: 0.0152548
14035719204312: Event_284: system.switch_cpus2 progress event, total committed:170831669, progress insts committed: 152697, IPC: 0.0152544
14035719204312: Event_283: system.switch_cpus1 progress event, total committed:170831889, progress insts committed: 152730, IPC: 0.0152577
14035719204312: Event_282: system.switch_cpus0 progress event, total committed:170831841, progress insts committed: 152696, IPC: 0.0152543
14039052537645: Event_282: system.switch_cpus0 progress event, total committed:170971165, progress insts committed: 139324, IPC: 0.0139185
14039052537645: Event_283: system.switch_cpus1 progress event, total committed:170971192, progress insts committed: 139303, IPC: 0.0139164
14039052537645: Event_284: system.switch_cpus2 progress event, total committed:170970994, progress insts committed: 139325, IPC: 0.0139186
14039052537645: Event_285: system.switch_cpus3 progress event, total committed:170970738, progress insts committed: 139305, IPC: 0.0139166
14042385870978: Event_285: system.switch_cpus3 progress event, total committed:171122209, progress insts committed: 151471, IPC: 0.015132
14042385870978: Event_284: system.switch_cpus2 progress event, total committed:171122470, progress insts committed: 151476, IPC: 0.0151325
14042385870978: Event_283: system.switch_cpus1 progress event, total committed:171122641, progress insts committed: 151449, IPC: 0.0151298
14042385870978: Event_282: system.switch_cpus0 progress event, total committed:171122592, progress insts committed: 151427, IPC: 0.0151276
14045719204311: Event_282: system.switch_cpus0 progress event, total committed:171274832, progress insts committed: 152240, IPC: 0.0152088
14045719204311: Event_283: system.switch_cpus1 progress event, total committed:171274888, progress insts committed: 152247, IPC: 0.0152095
14045719204311: Event_284: system.switch_cpus2 progress event, total committed:171274710, progress insts committed: 152240, IPC: 0.0152088
14045719204311: Event_285: system.switch_cpus3 progress event, total committed:171274448, progress insts committed: 152239, IPC: 0.0152087
14049052537644: Event_285: system.switch_cpus3 progress event, total committed:171425832, progress insts committed: 151384, IPC: 0.0151233
14049052537644: Event_284: system.switch_cpus2 progress event, total committed:171426070, progress insts committed: 151360, IPC: 0.0151209
14049052537644: Event_283: system.switch_cpus1 progress event, total committed:171426240, progress insts committed: 151352, IPC: 0.0151201
14049052537644: Event_282: system.switch_cpus0 progress event, total committed:171426239, progress insts committed: 151407, IPC: 0.0151256
14052385870977: Event_282: system.switch_cpus0 progress event, total committed:172975246, progress insts committed: 1549007, IPC: 0.154746
14052385870977: Event_283: system.switch_cpus1 progress event, total committed:172975314, progress insts committed: 1549074, IPC: 0.154752
14052385870977: Event_284: system.switch_cpus2 progress event, total committed:172966194, progress insts committed: 1540124, IPC: 0.153858
14052385870977: Event_285: system.switch_cpus3 progress event, total committed:172947954, progress insts committed: 1522122, IPC: 00.15206
14055719204310: Event_285: system.switch_cpus3 progress event, total committed:174599106, progress insts committed: 1651152, IPC: 00.16495
14055719204310: Event_284: system.switch_cpus2 progress event, total committed:174615812, progress insts committed: 1649618, IPC: 0.164797
14055719204310: Event_283: system.switch_cpus1 progress event, total committed:174637489, progress insts committed: 1662175, IPC: 0.166051
14055719204310: Event_282: system.switch_cpus0 progress event, total committed:174631316, progress insts committed: 1656070, IPC: 0.165441
14059052537643: Event_282: system.switch_cpus0 progress event, total committed:176235980, progress insts committed: 1604664, IPC: 0.160306
14059052537643: Event_283: system.switch_cpus1 progress event, total committed:176235980, progress insts committed: 1598491, IPC: 0.159689
14059052537643: Event_284: system.switch_cpus2 progress event, total committed:176213104, progress insts committed: 1597292, IPC: 0.159569
14059052537643: Event_285: system.switch_cpus3 progress event, total committed:176190202, progress insts committed: 1591096, IPC: 00.15895
14062385870976: Event_285: system.switch_cpus3 progress event, total committed:178127444, progress insts committed: 1937242, IPC: 00.19353
14062385870976: Event_284: system.switch_cpus2 progress event, total committed:178151378, progress insts committed: 1938274, IPC: 0.193634
14062385870976: Event_283: system.switch_cpus1 progress event, total committed:178170064, progress insts committed: 1934084, IPC: 0.193215
14062385870976: Event_282: system.switch_cpus0 progress event, total committed:178170050, progress insts committed: 1934070, IPC: 0.193214
14065719204309: Event_282: system.switch_cpus0 progress event, total committed:180122800, progress insts committed: 1952750, IPC: 00.19508
14065719204309: Event_283: system.switch_cpus1 progress event, total committed:180121746, progress insts committed: 1951682, IPC: 0.194973
14065719204309: Event_284: system.switch_cpus2 progress event, total committed:180102672, progress insts committed: 1951294, IPC: 0.194934
14065719204309: Event_285: system.switch_cpus3 progress event, total committed:180080910, progress insts committed: 1953466, IPC: 0.195151
14069052537642: Event_285: system.switch_cpus3 progress event, total committed:181887720, progress insts committed: 1806810, IPC: 000.1805
14069052537642: Event_284: system.switch_cpus2 progress event, total committed:181895282, progress insts committed: 1792610, IPC: 0.179082
14069052537642: Event_283: system.switch_cpus1 progress event, total committed:181932764, progress insts committed: 1811018, IPC: 0.180921
14069052537642: Event_282: system.switch_cpus0 progress event, total committed:181933290, progress insts committed: 1810490, IPC: 0.180868
14072385870975: Event_282: system.switch_cpus0 progress event, total committed:183858037, progress insts committed: 1924747, IPC: 0.192282
14072385870975: Event_283: system.switch_cpus1 progress event, total committed:183855623, progress insts committed: 1922859, IPC: 0.192094
14072385870975: Event_284: system.switch_cpus2 progress event, total committed:183823757, progress insts committed: 1928475, IPC: 0.192655
14072385870975: Event_285: system.switch_cpus3 progress event, total committed:183813767, progress insts committed: 1926047, IPC: 0.192412
14075719204308: Event_285: system.switch_cpus3 progress event, total committed:185714030, progress insts committed: 1900263, IPC: 0.189836
14075719204308: Event_284: system.switch_cpus2 progress event, total committed:185717005, progress insts committed: 1893248, IPC: 0.189135
14075719204308: Event_283: system.switch_cpus1 progress event, total committed:185757209, progress insts committed: 1901586, IPC: 0.189968
14075719204308: Event_282: system.switch_cpus0 progress event, total committed:185757720, progress insts committed: 1899683, IPC: 0.189778
14079052537641: Event_282: system.switch_cpus0 progress event, total committed:187524514, progress insts committed: 1766794, IPC: 0.176503
14079052537641: Event_283: system.switch_cpus1 progress event, total committed:187518964, progress insts committed: 1761755, IPC: 0.175999
14079052537641: Event_284: system.switch_cpus2 progress event, total committed:187486678, progress insts committed: 1769673, IPC: 00.17679
14079052537641: Event_285: system.switch_cpus3 progress event, total committed:187486146, progress insts committed: 1772116, IPC: 0.177034
14082385870974: Event_285: system.switch_cpus3 progress event, total committed:189394924, progress insts committed: 1908778, IPC: 0.190687
14082385870974: Event_284: system.switch_cpus2 progress event, total committed:189396098, progress insts committed: 1909420, IPC: 0.190751
14082385870974: Event_283: system.switch_cpus1 progress event, total committed:189426504, progress insts committed: 1907540, IPC: 0.190563
14082385870974: Event_282: system.switch_cpus0 progress event, total committed:189430682, progress insts committed: 1906168, IPC: 0.190426
14085719204307: Event_282: system.switch_cpus0 progress event, total committed:191259935, progress insts committed: 1829253, IPC: 0.182742
14085719204307: Event_283: system.switch_cpus1 progress event, total committed:191259864, progress insts committed: 1833360, IPC: 0.183153
14085719204307: Event_284: system.switch_cpus2 progress event, total committed:191259508, progress insts committed: 1863410, IPC: 0.186155
14085719204307: Event_285: system.switch_cpus3 progress event, total committed:191259479, progress insts committed: 1864555, IPC: 0.186269
14089052537640: Event_285: system.switch_cpus3 progress event, total committed:193085878, progress insts committed: 1826399, IPC: 0.182457
14089052537640: Event_284: system.switch_cpus2 progress event, total committed:193086700, progress insts committed: 1827192, IPC: 0.182536
14089052537640: Event_283: system.switch_cpus1 progress event, total committed:193113627, progress insts committed: 1853763, IPC: 0.185191
14089052537640: Event_282: system.switch_cpus0 progress event, total committed:193114191, progress insts committed: 1854256, IPC: 00.18524
14092385870973: Event_282: system.switch_cpus0 progress event, total committed:195028912, progress insts committed: 1914721, IPC: 0.191281
14092385870973: Event_283: system.switch_cpus1 progress event, total committed:195028842, progress insts committed: 1915215, IPC: 00.19133
14092385870973: Event_284: system.switch_cpus2 progress event, total committed:195001349, progress insts committed: 1914649, IPC: 0.191273
14092385870973: Event_285: system.switch_cpus3 progress event, total committed:195001543, progress insts committed: 1915665, IPC: 0.191375
14095719204306: Event_285: system.switch_cpus3 progress event, total committed:196774866, progress insts committed: 1773323, IPC: 0.177155
14095719204306: Event_284: system.switch_cpus2 progress event, total committed:196771916, progress insts committed: 1770567, IPC: 00.17688
14095719204306: Event_283: system.switch_cpus1 progress event, total committed:196811284, progress insts committed: 1782442, IPC: 0.178066
14095719204306: Event_282: system.switch_cpus0 progress event, total committed:196813974, progress insts committed: 1785062, IPC: 0.178328
14099052537639: Event_282: system.switch_cpus0 progress event, total committed:198704102, progress insts committed: 1890128, IPC: 0.188824
14099052537639: Event_283: system.switch_cpus1 progress event, total committed:198703860, progress insts committed: 1892576, IPC: 0.189068
14099052537639: Event_284: system.switch_cpus2 progress event, total committed:198672358, progress insts committed: 1900442, IPC: 0.189854
14099052537639: Event_285: system.switch_cpus3 progress event, total committed:198678294, progress insts committed: 1903428, IPC: 0.190152
14102385870972: Event_285: system.switch_cpus3 progress event, total committed:200570914, progress insts committed: 1892620, IPC: 0.189073
14102385870972: Event_284: system.switch_cpus2 progress event, total committed:200564243, progress insts committed: 1891885, IPC: 0.188999
14102385870972: Event_283: system.switch_cpus1 progress event, total committed:200598160, progress insts committed: 1894300, IPC: 0.189241
14102385870972: Event_282: system.switch_cpus0 progress event, total committed:200599469, progress insts committed: 1895367, IPC: 0.189347
14105719204305: Event_282: system.switch_cpus0 progress event, total committed:202377784, progress insts committed: 1778315, IPC: 0.177654
14105719204305: Event_283: system.switch_cpus1 progress event, total committed:202375420, progress insts committed: 1777260, IPC: 0.177548
14105719204305: Event_284: system.switch_cpus2 progress event, total committed:202339130, progress insts committed: 1774887, IPC: 0.177311
14105719204305: Event_285: system.switch_cpus3 progress event, total committed:202347642, progress insts committed: 1776728, IPC: 0.177495
14109052537638: Event_285: system.switch_cpus3 progress event, total committed:204240591, progress insts committed: 1892949, IPC: 0.189106
14109052537638: Event_284: system.switch_cpus2 progress event, total committed:204234494, progress insts committed: 1895364, IPC: 0.189347
14109052537638: Event_283: system.switch_cpus1 progress event, total committed:204273150, progress insts committed: 1897730, IPC: 0.189583
14109052537638: Event_282: system.switch_cpus0 progress event, total committed:204274753, progress insts committed: 1896969, IPC: 0.189507
14112385870971: Event_282: system.switch_cpus0 progress event, total committed:206178626, progress insts committed: 1903873, IPC: 0.190197
14112385870971: Event_283: system.switch_cpus1 progress event, total committed:206177033, progress insts committed: 1903883, IPC: 0.190198
14112385870971: Event_284: system.switch_cpus2 progress event, total committed:206129985, progress insts committed: 1895491, IPC: 00.18936
14112385870971: Event_285: system.switch_cpus3 progress event, total committed:206132632, progress insts committed: 1892041, IPC: 0.189015
14115719204304: Event_285: system.switch_cpus3 progress event, total committed:207913502, progress insts committed: 1780870, IPC: 0.177909
14115719204304: Event_284: system.switch_cpus2 progress event, total committed:207906611, progress insts committed: 1776626, IPC: 0.177485
14115719204304: Event_283: system.switch_cpus1 progress event, total committed:207948196, progress insts committed: 1771163, IPC: 0.176939
14115719204304: Event_282: system.switch_cpus0 progress event, total committed:207948438, progress insts committed: 1769812, IPC: 0.176804
14119052537637: Event_282: system.switch_cpus0 progress event, total committed:209870274, progress insts committed: 1921836, IPC: 0.191991
14119052537637: Event_283: system.switch_cpus1 progress event, total committed:209868933, progress insts committed: 1920737, IPC: 0.191882
14119052537637: Event_284: system.switch_cpus2 progress event, total committed:209824114, progress insts committed: 1917503, IPC: 0.191559
14119052537637: Event_285: system.switch_cpus3 progress event, total committed:209831856, progress insts committed: 1918354, IPC: 0.191644
14122385870970: Event_285: system.switch_cpus3 progress event, total committed:211752051, progress insts committed: 1920195, IPC: 0.191827
14122385870970: Event_284: system.switch_cpus2 progress event, total committed:211751806, progress insts committed: 1927692, IPC: 0.192576
14122385870970: Event_283: system.switch_cpus1 progress event, total committed:211782555, progress insts committed: 1913622, IPC: 0.191171
14122385870970: Event_282: system.switch_cpus0 progress event, total committed:211782519, progress insts committed: 1912245, IPC: 0.191033
14125719204303: Event_282: system.switch_cpus0 progress event, total committed:213562292, progress insts committed: 1779773, IPC: 0.177799
14125719204303: Event_283: system.switch_cpus1 progress event, total committed:213569740, progress insts committed: 1787185, IPC: 00.17854
14125719204303: Event_284: system.switch_cpus2 progress event, total committed:213519490, progress insts committed: 1767684, IPC: 0.176592
14125719204303: Event_285: system.switch_cpus3 progress event, total committed:213521860, progress insts committed: 1769809, IPC: 0.176804
14129052537636: Event_285: system.switch_cpus3 progress event, total committed:215427867, progress insts committed: 1906007, IPC: 00.19041
14129052537636: Event_284: system.switch_cpus2 progress event, total committed:215424430, progress insts committed: 1904940, IPC: 0.190304
14129052537636: Event_283: system.switch_cpus1 progress event, total committed:215459124, progress insts committed: 1889384, IPC: 0.188749
14129052537636: Event_282: system.switch_cpus0 progress event, total committed:215452740, progress insts committed: 1890448, IPC: 0.188856
14132385870969: Event_282: system.switch_cpus0 progress event, total committed:217203528, progress insts committed: 1750788, IPC: 0.174904
14132385870969: Event_283: system.switch_cpus1 progress event, total committed:217210976, progress insts committed: 1751852, IPC: 00.17501
14132385870969: Event_284: system.switch_cpus2 progress event, total committed:217178700, progress insts committed: 1754270, IPC: 0.175252
14132385870969: Event_285: system.switch_cpus3 progress event, total committed:217180296, progress insts committed: 1752429, IPC: 0.175068
14135719204302: Event_285: system.switch_cpus3 progress event, total committed:219019477, progress insts committed: 1839181, IPC: 0.183734
14135719204302: Event_284: system.switch_cpus2 progress event, total committed:219019155, progress insts committed: 1840455, IPC: 0.183861
14135719204302: Event_283: system.switch_cpus1 progress event, total committed:219047255, progress insts committed: 1836279, IPC: 0.183444
14135719204302: Event_282: system.switch_cpus0 progress event, total committed:219040575, progress insts committed: 1837047, IPC: 0.183521
14139052537635: Event_282: system.switch_cpus0 progress event, total committed:220929561, progress insts committed: 1888986, IPC: 00.18871
14139052537635: Event_283: system.switch_cpus1 progress event, total committed:220939137, progress insts committed: 1891882, IPC: 0.188999
14139052537635: Event_284: system.switch_cpus2 progress event, total committed:220911864, progress insts committed: 1892709, IPC: 0.189082
14139052537635: Event_285: system.switch_cpus3 progress event, total committed:220915373, progress insts committed: 1895896, IPC: 000.1894
14142385870968: Event_285: system.switch_cpus3 progress event, total committed:222651869, progress insts committed: 1736496, IPC: 0.173476
14142385870968: Event_284: system.switch_cpus2 progress event, total committed:222651023, progress insts committed: 1739159, IPC: 0.173742
14142385870968: Event_283: system.switch_cpus1 progress event, total committed:222679578, progress insts committed: 1740441, IPC: 00.17387
14142385870968: Event_282: system.switch_cpus0 progress event, total committed:222675609, progress insts committed: 1746048, IPC: 00.17443
14145719204301: Event_282: system.switch_cpus0 progress event, total committed:224422000, progress insts committed: 1746391, IPC: 0.174464
14145719204301: Event_283: system.switch_cpus1 progress event, total committed:224424920, progress insts committed: 1745342, IPC: 00.17436
14145719204301: Event_284: system.switch_cpus2 progress event, total committed:224389339, progress insts committed: 1738316, IPC: 0.173658
14145719204301: Event_285: system.switch_cpus3 progress event, total committed:224389339, progress insts committed: 1737470, IPC: 0.173573
14149052537634: Event_285: system.switch_cpus3 progress event, total committed:226279565, progress insts committed: 1890226, IPC: 0.188834
14149052537634: Event_284: system.switch_cpus2 progress event, total committed:226278501, progress insts committed: 1889162, IPC: 0.188727
14149052537634: Event_283: system.switch_cpus1 progress event, total committed:226315741, progress insts committed: 1890821, IPC: 0.188893
14149052537634: Event_282: system.switch_cpus0 progress event, total committed:226312079, progress insts committed: 1890079, IPC: 0.188819
14152385870967: Event_282: system.switch_cpus0 progress event, total committed:228066930, progress insts committed: 1754851, IPC: 00.17531
14152385870967: Event_283: system.switch_cpus1 progress event, total committed:228073314, progress insts committed: 1757573, IPC: 0.175582
14152385870967: Event_284: system.switch_cpus2 progress event, total committed:228050614, progress insts committed: 1772113, IPC: 0.177034
14152385870967: Event_285: system.switch_cpus3 progress event, total committed:228051146, progress insts committed: 1771581, IPC: 0.176981
14155719204300: Event_285: system.switch_cpus3 progress event, total committed:229703269, progress insts committed: 1652123, IPC: 0.165047
14155719204300: Event_284: system.switch_cpus2 progress event, total committed:229703422, progress insts committed: 1652808, IPC: 0.165116
14155719204300: Event_283: system.switch_cpus1 progress event, total committed:229732614, progress insts committed: 1659300, IPC: 0.165764
14155719204300: Event_282: system.switch_cpus0 progress event, total committed:229731962, progress insts committed: 1665032, IPC: 0.166337
14159052537633: Event_282: system.switch_cpus0 progress event, total committed:231630575, progress insts committed: 1898613, IPC: 0.189671
14159052537633: Event_283: system.switch_cpus1 progress event, total committed:231636427, progress insts committed: 1903813, IPC: 0.190191
14159052537633: Event_284: system.switch_cpus2 progress event, total committed:231613193, progress insts committed: 1909771, IPC: 0.190786
14159052537633: Event_285: system.switch_cpus3 progress event, total committed:231613097, progress insts committed: 1909828, IPC: 0.190792
14162385870966: Event_285: system.switch_cpus3 progress event, total committed:233315789, progress insts committed: 1702692, IPC: 0.170099
14162385870966: Event_284: system.switch_cpus2 progress event, total committed:233315768, progress insts committed: 1702575, IPC: 0.170087
14162385870966: Event_283: system.switch_cpus1 progress event, total committed:233322762, progress insts committed: 1686335, IPC: 0.168465
14162385870966: Event_282: system.switch_cpus0 progress event, total committed:233322492, progress insts committed: 1691917, IPC: 0.169023
14165719204299: Event_282: system.switch_cpus0 progress event, total committed:235006552, progress insts committed: 1684060, IPC: 0.168238
14165719204299: Event_283: system.switch_cpus1 progress event, total committed:235008148, progress insts committed: 1685386, IPC: 00.16837
14165719204299: Event_284: system.switch_cpus2 progress event, total committed:234969787, progress insts committed: 1654019, IPC: 0.165236
14165719204299: Event_285: system.switch_cpus3 progress event, total committed:234974632, progress insts committed: 1658843, IPC: 0.165718
14169052537632: Event_285: system.switch_cpus3 progress event, total committed:236892330, progress insts committed: 1917698, IPC: 0.191578
14169052537632: Event_284: system.switch_cpus2 progress event, total committed:236877976, progress insts committed: 1908189, IPC: 0.190628
14169052537632: Event_283: system.switch_cpus1 progress event, total committed:236918764, progress insts committed: 1910616, IPC: 0.190871
14169052537632: Event_282: system.switch_cpus0 progress event, total committed:236917483, progress insts committed: 1910931, IPC: 0.190902
14172385870965: Event_282: system.switch_cpus0 progress event, total committed:238458107, progress insts committed: 1540624, IPC: 0.153908
14172385870965: Event_283: system.switch_cpus1 progress event, total committed:238458197, progress insts committed: 1539433, IPC: 0.153789
14172385870965: Event_284: system.switch_cpus2 progress event, total committed:238431606, progress insts committed: 1553630, IPC: 0.155208
14172385870965: Event_285: system.switch_cpus3 progress event, total committed:238442778, progress insts committed: 1550448, IPC: 00.15489
14175719204298: Event_285: system.switch_cpus3 progress event, total committed:240138868, progress insts committed: 1696090, IPC: 0.169439
14175719204298: Event_284: system.switch_cpus2 progress event, total committed:240130643, progress insts committed: 1699037, IPC: 0.169734
14175719204298: Event_283: system.switch_cpus1 progress event, total committed:240174913, progress insts committed: 1716716, IPC: 000.1715
14175719204298: Event_282: system.switch_cpus0 progress event, total committed:240171721, progress insts committed: 1713614, IPC: 00.17119
14179052537631: Event_282: system.switch_cpus0 progress event, total committed:241940677, progress insts committed: 1768956, IPC: 0.176719
14179052537631: Event_283: system.switch_cpus1 progress event, total committed:241941216, progress insts committed: 1766303, IPC: 0.176454
14179052537631: Event_284: system.switch_cpus2 progress event, total committed:241900987, progress insts committed: 1770344, IPC: 0.176857
14179052537631: Event_285: system.switch_cpus3 progress event, total committed:241902583, progress insts committed: 1763715, IPC: 0.176195
14182385870964: Event_285: system.switch_cpus3 progress event, total committed:243457169, progress insts committed: 1554586, IPC: 0.155303
14182385870964: Event_284: system.switch_cpus2 progress event, total committed:243457169, progress insts committed: 1556182, IPC: 0.155463
14182385870964: Event_283: system.switch_cpus1 progress event, total committed:243457690, progress insts committed: 1516474, IPC: 0.151496
14182385870964: Event_282: system.switch_cpus0 progress event, total committed:243457576, progress insts committed: 1516899, IPC: 0.151538
14185719204297: Event_282: system.switch_cpus0 progress event, total committed:245234254, progress insts committed: 1776678, IPC: 00.17749
14185719204297: Event_283: system.switch_cpus1 progress event, total committed:245239738, progress insts committed: 1782048, IPC: 0.178027
14185719204297: Event_284: system.switch_cpus2 progress event, total committed:245199482, progress insts committed: 1742313, IPC: 0.174057
14185719204297: Event_285: system.switch_cpus3 progress event, total committed:245206930, progress insts committed: 1749761, IPC: 0.174801
14189052537630: Event_285: system.switch_cpus3 progress event, total committed:246950560, progress insts committed: 1743630, IPC: 0.174189
14189052537630: Event_284: system.switch_cpus2 progress event, total committed:246939633, progress insts committed: 1740151, IPC: 0.173841
14189052537630: Event_283: system.switch_cpus1 progress event, total committed:246982836, progress insts committed: 1743098, IPC: 0.174135
14189052537630: Event_282: system.switch_cpus0 progress event, total committed:246974859, progress insts committed: 1740605, IPC: 0.173886
14192385870963: Event_282: system.switch_cpus0 progress event, total committed:248407038, progress insts committed: 1432179, IPC: 0.143075
14192385870963: Event_283: system.switch_cpus1 progress event, total committed:248407072, progress insts committed: 1424236, IPC: 0.142281
14192385870963: Event_284: system.switch_cpus2 progress event, total committed:248378127, progress insts committed: 1438494, IPC: 0.143706
14192385870963: Event_285: system.switch_cpus3 progress event, total committed:248381070, progress insts committed: 1430510, IPC: 0.142908
14195719204296: Event_285: system.switch_cpus3 progress event, total committed:250188573, progress insts committed: 1807503, IPC: 00.18057
14195719204296: Event_284: system.switch_cpus2 progress event, total committed:250180883, progress insts committed: 1802756, IPC: 0.180095
14195719204296: Event_283: system.switch_cpus1 progress event, total committed:250234442, progress insts committed: 1827370, IPC: 0.182554
14195719204296: Event_282: system.switch_cpus0 progress event, total committed:250225153, progress insts committed: 1818115, IPC: 00.18163
14199052537629: Event_282: system.switch_cpus0 progress event, total committed:252007375, progress insts committed: 1782222, IPC: 0.178044
14199052537629: Event_283: system.switch_cpus1 progress event, total committed:252017283, progress insts committed: 1782841, IPC: 0.178106
14199052537629: Event_284: system.switch_cpus2 progress event, total committed:251969560, progress insts committed: 1788677, IPC: 0.178689
14199052537629: Event_285: system.switch_cpus3 progress event, total committed:251976231, progress insts committed: 1787658, IPC: 0.178587
14202385870962: Event_285: system.switch_cpus3 progress event, total committed:253316052, progress insts committed: 1339821, IPC: 0.133848
14202385870962: Event_284: system.switch_cpus2 progress event, total committed:253315703, progress insts committed: 1346143, IPC: 00.13448
14202385870962: Event_283: system.switch_cpus1 progress event, total committed:253333418, progress insts committed: 1316135, IPC: 0.131482
14202385870962: Event_282: system.switch_cpus0 progress event, total committed:253323065, progress insts committed: 1315690, IPC: 0.131437
14205719204295: Event_282: system.switch_cpus0 progress event, total committed:255158476, progress insts committed: 1835411, IPC: 0.183358
14205719204295: Event_283: system.switch_cpus1 progress event, total committed:255160667, progress insts committed: 1827249, IPC: 0.182542
14205719204295: Event_284: system.switch_cpus2 progress event, total committed:255099269, progress insts committed: 1783566, IPC: 0.178178
14205719204295: Event_285: system.switch_cpus3 progress event, total committed:255128388, progress insts committed: 1812336, IPC: 0.181052
14209052537628: Event_285: system.switch_cpus3 progress event, total committed:256807000, progress insts committed: 1678612, IPC: 0.167693
14209052537628: Event_284: system.switch_cpus2 progress event, total committed:256773902, progress insts committed: 1674633, IPC: 0.167296
14209052537628: Event_283: system.switch_cpus1 progress event, total committed:256842414, progress insts committed: 1681747, IPC: 0.168007
14209052537628: Event_282: system.switch_cpus0 progress event, total committed:256841290, progress insts committed: 1682814, IPC: 0.168113
14212385870961: Event_282: system.switch_cpus0 progress event, total committed:258077174, progress insts committed: 1235884, IPC: 0.123465
14212385870961: Event_283: system.switch_cpus1 progress event, total committed:258083548, progress insts committed: 1241134, IPC: 0.123989
14212385870961: Event_284: system.switch_cpus2 progress event, total committed:258055205, progress insts committed: 1281303, IPC: 0.128002
14212385870961: Event_285: system.switch_cpus3 progress event, total committed:258055582, progress insts committed: 1248582, IPC: 0.124733
14215719204294: Event_285: system.switch_cpus3 progress event, total committed:259894603, progress insts committed: 1839021, IPC: 0.183718
14215719204294: Event_284: system.switch_cpus2 progress event, total committed:259863753, progress insts committed: 1808548, IPC: 0.180674
14215719204294: Event_283: system.switch_cpus1 progress event, total committed:259976236, progress insts committed: 1892688, IPC: 00.18908
14215719204294: Event_282: system.switch_cpus0 progress event, total committed:259969075, progress insts committed: 1891901, IPC: 0.189001
14219052537627: Event_282: system.switch_cpus0 progress event, total committed:261676519, progress insts committed: 1707444, IPC: 0.170574
14219052537627: Event_283: system.switch_cpus1 progress event, total committed:261676576, progress insts committed: 1700340, IPC: 0.169864
14219052537627: Event_284: system.switch_cpus2 progress event, total committed:261634741, progress insts committed: 1770988, IPC: 0.176922
14219052537627: Event_285: system.switch_cpus3 progress event, total committed:261635544, progress insts committed: 1740941, IPC: 00.17392
14222385870960: Event_285: system.switch_cpus3 progress event, total committed:262836572, progress insts committed: 1201028, IPC: 0.119983
14222385870960: Event_284: system.switch_cpus2 progress event, total committed:262828869, progress insts committed: 1194128, IPC: 0.119293
14222385870960: Event_283: system.switch_cpus1 progress event, total committed:262882820, progress insts committed: 1206244, IPC: 0.120504
14222385870960: Event_282: system.switch_cpus0 progress event, total committed:262880134, progress insts committed: 1203615, IPC: 0.120241
14225719204293: Event_282: system.switch_cpus0 progress event, total committed:264841188, progress insts committed: 1961054, IPC: 0.195909
14225719204293: Event_283: system.switch_cpus1 progress event, total committed:264852929, progress insts committed: 1970109, IPC: 0.196814
14225719204293: Event_284: system.switch_cpus2 progress event, total committed:264740944, progress insts committed: 1912075, IPC: 0.191016
14225719204293: Event_285: system.switch_cpus3 progress event, total committed:264750765, progress insts committed: 1914193, IPC: 0.191228
14229052537626: Event_285: system.switch_cpus3 progress event, total committed:266442761, progress insts committed: 1691996, IPC: 00.16903
14229052537626: Event_284: system.switch_cpus2 progress event, total committed:266442712, progress insts committed: 1701768, IPC: 0.170007
14229052537626: Event_283: system.switch_cpus1 progress event, total committed:266471881, progress insts committed: 1618952, IPC: 0.161733
14229052537626: Event_282: system.switch_cpus0 progress event, total committed:266470372, progress insts committed: 1629184, IPC: 0.162755
14232385870959: Event_282: system.switch_cpus0 progress event, total committed:267737429, progress insts committed: 1267057, IPC: 0.126579
14232385870959: Event_283: system.switch_cpus1 progress event, total committed:267733173, progress insts committed: 1261292, IPC: 0.126003
14232385870959: Event_284: system.switch_cpus2 progress event, total committed:267647583, progress insts committed: 1204871, IPC: 0.120367
14232385870959: Event_285: system.switch_cpus3 progress event, total committed:267650775, progress insts committed: 1208014, IPC: 0.120681
14235719204292: Event_285: system.switch_cpus3 progress event, total committed:269540616, progress insts committed: 1889841, IPC: 0.188795
14235719204292: Event_284: system.switch_cpus2 progress event, total committed:269540069, progress insts committed: 1892486, IPC: 0.189059
14235719204292: Event_283: system.switch_cpus1 progress event, total committed:269635992, progress insts committed: 1902819, IPC: 0.190092
14235719204292: Event_282: system.switch_cpus0 progress event, total committed:269637871, progress insts committed: 1900442, IPC: 0.189854
14239052537625: Event_282: system.switch_cpus0 progress event, total committed:271162313, progress insts committed: 1524442, IPC: 0.152292
14239052537625: Event_283: system.switch_cpus1 progress event, total committed:271162297, progress insts committed: 1526305, IPC: 0.152478
14239052537625: Event_284: system.switch_cpus2 progress event, total committed:271149209, progress insts committed: 1609140, IPC: 0.160753
14239052537625: Event_285: system.switch_cpus3 progress event, total committed:271153216, progress insts committed: 1612600, IPC: 0.161099
14242385870958: Event_285: system.switch_cpus3 progress event, total committed:272389774, progress insts committed: 1236558, IPC: 0.123532
14242385870958: Event_284: system.switch_cpus2 progress event, total committed:272389484, progress insts committed: 1240275, IPC: 0.123903
14242385870958: Event_283: system.switch_cpus1 progress event, total committed:272473185, progress insts committed: 1310888, IPC: 0.130958
14242385870958: Event_282: system.switch_cpus0 progress event, total committed:272480161, progress insts committed: 1317848, IPC: 0.131653
14245719204291: Event_282: system.switch_cpus0 progress event, total committed:274372614, progress insts committed: 1892453, IPC: 0.189056
14245719204291: Event_283: system.switch_cpus1 progress event, total committed:274365698, progress insts committed: 1892513, IPC: 0.189062
14245719204291: Event_284: system.switch_cpus2 progress event, total committed:274282720, progress insts committed: 1893236, IPC: 0.189134
14245719204291: Event_285: system.switch_cpus3 progress event, total committed:274285670, progress insts committed: 1895896, IPC: 000.1894
Exiting @ tick 14247389486862 because a thread reached the max instruction count
