Command line:
./runscript_pride.sh lbm RFM10.BR2.4C 4 2017 --rh_defense --rh_mitigation=RFM --rh_rfm_per_trefi=10 --rh_rfm_blast_radius=2 --rh_rfm_maxacts_per_trefi=79
Global frequency set at 1000000000000 ticks per second
RFM details - rfm_act_threshold: 7, blast_radius: 2, delay_per_rfm: 175000 ps. sample_rate: 0.125000
RH Defense config: RFM, Bus Delay: 0, rfms_per_trefi: 10, rfm_act_threshold: 7, blast_radius: 2,rfm_delay_per_act: 45000 ps.
DRAM config: RowsPerBank: 65536, BanksPerRank: 32, RanksPerChannel: 1
warn: Sockets disabled, not accepting gdb connections
warn: CoherentXBar system.cpu0.mmucache.mmubus has no snooping ports attached!
warn: CoherentXBar system.cpu1.mmucache.mmubus has no snooping ports attached!
warn: CoherentXBar system.cpu2.mmucache.mmubus has no snooping ports attached!
warn: CoherentXBar system.cpu3.mmucache.mmubus has no snooping ports attached!
warn: Checkpoints for file descriptors currently do not work.
warn: Checkpoints for file descriptors currently do not work.
warn: Checkpoints for file descriptors currently do not work.
warn: Checkpoints for file descriptors currently do not work.
gem5 Simulator System.  http://gem5.org
gem5 is copyrighted software; use the --copyright option for details.

gem5 version 20.1.0.5
gem5 compiled Jul 12 2024 12:42:38
gem5 started Aug  1 2024 18:47:14
gem5 executing on a07dda8b130c, pid 251248
command line: /home/user/PrIDE/performance/gem5/build/X86/gem5.opt --outdir=/home/user/PrIDE/performance/gem5/stats/pride_multiprogram_16GBmem_250Mn.SPEC2017.C4/RFM10.BR2.4C/lbm /home/user/PrIDE/performance/gem5/configs/example/se_rq_spec_config_multicore.py --redirects /lib64=/home/utils/gcc-6.2.0/lib64 --benchmark=lbm --benchmark_stdout=/home/user/PrIDE/performance/gem5/stats/pride_multiprogram_16GBmem_250Mn.SPEC2017.C4/RFM10.BR2.4C/lbm/lbm.out --benchmark_stderr=/home/user/PrIDE/performance/gem5/stats/pride_multiprogram_16GBmem_250Mn.SPEC2017.C4/RFM10.BR2.4C/lbm/lbm.err --spec-version=2017 --rh_defense --rh_mitigation=RFM --rh_rfm_per_trefi=10 --rh_rfm_blast_radius=2 --rh_rfm_maxacts_per_trefi=79 --num-cpus=4 --mem-size=16GB --mem-type=DDR5_2400_32x4 --mem-ranks=1 --mem-channels=1 --checkpoint-dir=/home/user/PrIDE/performance/gem5/cpts-DDR5/multiprogram_16GBmem_25Bn.SPEC2017.C4/lbm-1-ref-x86 --checkpoint-restore=25000000000 --at-instruction --cpu-type DerivO3CPU --caches --l2cache --l1d_size=32kB --l1i_size=32kB --l2_size=256kB --l3_size=4MB --l1d_assoc=8 --l1i_assoc=8 --l2_assoc=16 --l3_assoc=16 --cpu-clock=3GHz --sys-clock=3GHz --maxinsts=250000000 --prog-interval=300Hz

info: Standard input is not a terminal, disabling listeners.
Benchmark- 0   lbm
Selected benchmark
--> lbm
CMD: ['/opt/spec2017/benchspec/CPU/519.lbm_r/run/run_base_refrate_gem5_se-m64.0000/lbm_r_base.gem5_se-m64', '3000', 'reference.dat', '0', '0', '/opt/spec2017/benchspec/CPU/519.lbm_r/run/run_base_refrate_gem5_se-m64.0000/100_100_130_ldc.of']
CWD: /opt/spec2017/benchspec/CPU/519.lbm_r/run/run_base_refrate_gem5_se-m64.0000/
Process stdout file: /home/user/PrIDE/performance/gem5/stats/pride_multiprogram_16GBmem_250Mn.SPEC2017.C4/RFM10.BR2.4C/lbm/lbm.out_0
Process stderr file: /home/user/PrIDE/performance/gem5/stats/pride_multiprogram_16GBmem_250Mn.SPEC2017.C4/RFM10.BR2.4C/lbm/lbm.err_0
Benchmark- 1   lbm
Selected benchmark
--> lbm
CMD: ['/opt/spec2017/benchspec/CPU/519.lbm_r/run/run_base_refrate_gem5_se-m64.0000/lbm_r_base.gem5_se-m64', '3000', 'reference.dat', '0', '0', '/opt/spec2017/benchspec/CPU/519.lbm_r/run/run_base_refrate_gem5_se-m64.0000/100_100_130_ldc.of']
CWD: /opt/spec2017/benchspec/CPU/519.lbm_r/run/run_base_refrate_gem5_se-m64.0000/
Process stdout file: /home/user/PrIDE/performance/gem5/stats/pride_multiprogram_16GBmem_250Mn.SPEC2017.C4/RFM10.BR2.4C/lbm/lbm.out_1
Process stderr file: /home/user/PrIDE/performance/gem5/stats/pride_multiprogram_16GBmem_250Mn.SPEC2017.C4/RFM10.BR2.4C/lbm/lbm.err_1
Benchmark- 2   lbm
Selected benchmark
--> lbm
CMD: ['/opt/spec2017/benchspec/CPU/519.lbm_r/run/run_base_refrate_gem5_se-m64.0000/lbm_r_base.gem5_se-m64', '3000', 'reference.dat', '0', '0', '/opt/spec2017/benchspec/CPU/519.lbm_r/run/run_base_refrate_gem5_se-m64.0000/100_100_130_ldc.of']
CWD: /opt/spec2017/benchspec/CPU/519.lbm_r/run/run_base_refrate_gem5_se-m64.0000/
Process stdout file: /home/user/PrIDE/performance/gem5/stats/pride_multiprogram_16GBmem_250Mn.SPEC2017.C4/RFM10.BR2.4C/lbm/lbm.out_2
Process stderr file: /home/user/PrIDE/performance/gem5/stats/pride_multiprogram_16GBmem_250Mn.SPEC2017.C4/RFM10.BR2.4C/lbm/lbm.err_2
Benchmark- 3   lbm
Selected benchmark
--> lbm
CMD: ['/opt/spec2017/benchspec/CPU/519.lbm_r/run/run_base_refrate_gem5_se-m64.0000/lbm_r_base.gem5_se-m64', '3000', 'reference.dat', '0', '0', '/opt/spec2017/benchspec/CPU/519.lbm_r/run/run_base_refrate_gem5_se-m64.0000/100_100_130_ldc.of']
CWD: /opt/spec2017/benchspec/CPU/519.lbm_r/run/run_base_refrate_gem5_se-m64.0000/
Process stdout file: /home/user/PrIDE/performance/gem5/stats/pride_multiprogram_16GBmem_250Mn.SPEC2017.C4/RFM10.BR2.4C/lbm/lbm.out_3
Process stderr file: /home/user/PrIDE/performance/gem5/stats/pride_multiprogram_16GBmem_250Mn.SPEC2017.C4/RFM10.BR2.4C/lbm/lbm.err_3
Workload-0: 
['/opt/spec2017/benchspec/CPU/519.lbm_r/run/run_base_refrate_gem5_se-m64.0000/lbm_r_base.gem5_se-m64', '3000', 'reference.dat', '0', '0', '/opt/spec2017/benchspec/CPU/519.lbm_r/run/run_base_refrate_gem5_se-m64.0000/100_100_130_ldc.of']
Workload-1: 
['/opt/spec2017/benchspec/CPU/519.lbm_r/run/run_base_refrate_gem5_se-m64.0000/lbm_r_base.gem5_se-m64', '3000', 'reference.dat', '0', '0', '/opt/spec2017/benchspec/CPU/519.lbm_r/run/run_base_refrate_gem5_se-m64.0000/100_100_130_ldc.of']
Workload-2: 
['/opt/spec2017/benchspec/CPU/519.lbm_r/run/run_base_refrate_gem5_se-m64.0000/lbm_r_base.gem5_se-m64', '3000', 'reference.dat', '0', '0', '/opt/spec2017/benchspec/CPU/519.lbm_r/run/run_base_refrate_gem5_se-m64.0000/100_100_130_ldc.of']
Workload-3: 
['/opt/spec2017/benchspec/CPU/519.lbm_r/run/run_base_refrate_gem5_se-m64.0000/lbm_r_base.gem5_se-m64', '3000', 'reference.dat', '0', '0', '/opt/spec2017/benchspec/CPU/519.lbm_r/run/run_base_refrate_gem5_se-m64.0000/100_100_130_ldc.of']
defense_enable:  True  detector:  MG  mitigation:  RFM  threshold:  800
mg_entries:  1700
rfm_maxacts_per_trefi:  79 rfm_per_trefi:  10 rfm_blast_radius:  2
Switch at curTick count:10000
warn: membus.master is deprecated. `master` is now called `mem_side_ports`
warn: No dot file generated. Please install pydot to generate the dot file and pdf.
info: Entering event queue @ 13719052595286.  Starting simulation...
warn: PowerState: Already in the requested power state, request ignored
Switched CPUS @ tick 13719052605286
switching cpus
**** REAL SIMULATION ****
info: Entering event queue @ 13719052605286.  Starting simulation...
13722385928619: Event_285: system.switch_cpus3 progress event, total committed:2323526, progress insts committed: 2323526, IPC: 00.23212
13722385928619: Event_284: system.switch_cpus2 progress event, total committed:2324880, progress insts committed: 2324880, IPC: 0.232256
13722385928619: Event_283: system.switch_cpus1 progress event, total committed:2314485, progress insts committed: 2314485, IPC: 0.231217
13722385928619: Event_282: system.switch_cpus0 progress event, total committed:2325957, progress insts committed: 2325957, IPC: 0.232363
13725719261952: Event_282: system.switch_cpus0 progress event, total committed:4277396, progress insts committed: 1951439, IPC: 0.194949
13725719261952: Event_283: system.switch_cpus1 progress event, total committed:4259918, progress insts committed: 1945433, IPC: 0.194349
13725719261952: Event_284: system.switch_cpus2 progress event, total committed:4273914, progress insts committed: 1949034, IPC: 0.194708
13725719261952: Event_285: system.switch_cpus3 progress event, total committed:4273672, progress insts committed: 1950146, IPC: 00.19482
13729052595285: Event_285: system.switch_cpus3 progress event, total committed:6191380, progress insts committed: 1917708, IPC: 0.191579
13729052595285: Event_284: system.switch_cpus2 progress event, total committed:6192444, progress insts committed: 1918530, IPC: 0.191661
13729052595285: Event_283: system.switch_cpus1 progress event, total committed:6163961, progress insts committed: 1904043, IPC: 0.190214
13729052595285: Event_282: system.switch_cpus0 progress event, total committed:6193153, progress insts committed: 1915757, IPC: 0.191384
13732385928618: Event_282: system.switch_cpus0 progress event, total committed:7924370, progress insts committed: 1731217, IPC: 0.172949
13732385928618: Event_283: system.switch_cpus1 progress event, total committed:7883116, progress insts committed: 1719155, IPC: 0.171744
13732385928618: Event_284: system.switch_cpus2 progress event, total committed:7923838, progress insts committed: 1731394, IPC: 0.172966
13732385928618: Event_285: system.switch_cpus3 progress event, total committed:7926498, progress insts committed: 1735118, IPC: 0.173338
13735719261951: Event_285: system.switch_cpus3 progress event, total committed:9776884, progress insts committed: 1850386, IPC: 0.184854
13735719261951: Event_284: system.switch_cpus2 progress event, total committed:9774756, progress insts committed: 1850918, IPC: 0.184907
13735719261951: Event_283: system.switch_cpus1 progress event, total committed:9730244, progress insts committed: 1847128, IPC: 0.184528
13735719261951: Event_282: system.switch_cpus0 progress event, total committed:9777148, progress insts committed: 1852778, IPC: 0.185093
13739052595284: Event_282: system.switch_cpus0 progress event, total committed:11736205, progress insts committed: 1959057, IPC: 00.19571
13739052595284: Event_283: system.switch_cpus1 progress event, total committed:11684774, progress insts committed: 1954530, IPC: 0.195258
13739052595284: Event_284: system.switch_cpus2 progress event, total committed:11726916, progress insts committed: 1952160, IPC: 0.195021
13739052595284: Event_285: system.switch_cpus3 progress event, total committed:11729576, progress insts committed: 1952692, IPC: 0.195074
13742385928617: Event_285: system.switch_cpus3 progress event, total committed:13541011, progress insts committed: 1811435, IPC: 0.180962
13742385928617: Event_284: system.switch_cpus2 progress event, total committed:13533550, progress insts committed: 1806634, IPC: 0.180483
13742385928617: Event_283: system.switch_cpus1 progress event, total committed:13498034, progress insts committed: 1813260, IPC: 0.181145
13742385928617: Event_282: system.switch_cpus0 progress event, total committed:13551106, progress insts committed: 1814901, IPC: 0.181309
13745719261950: Event_282: system.switch_cpus0 progress event, total committed:15506700, progress insts committed: 1955594, IPC: 0.195364
13745719261950: Event_283: system.switch_cpus1 progress event, total committed:15453099, progress insts committed: 1955065, IPC: 0.195311
13745719261950: Event_284: system.switch_cpus2 progress event, total committed:15484925, progress insts committed: 1951375, IPC: 0.194942
13745719261950: Event_285: system.switch_cpus3 progress event, total committed:15493110, progress insts committed: 1952099, IPC: 0.195015
13749052595283: Event_285: system.switch_cpus3 progress event, total committed:17306131, progress insts committed: 1813021, IPC: 0.181121
13749052595283: Event_284: system.switch_cpus2 progress event, total committed:17303836, progress insts committed: 1818911, IPC: 0.181709
13749052595283: Event_283: system.switch_cpus1 progress event, total committed:17260265, progress insts committed: 1807166, IPC: 0.180536
13749052595283: Event_282: system.switch_cpus0 progress event, total committed:17316526, progress insts committed: 1809826, IPC: 0.180802
13752385928616: Event_282: system.switch_cpus0 progress event, total committed:19264258, progress insts committed: 1947732, IPC: 0.194578
13752385928616: Event_283: system.switch_cpus1 progress event, total committed:19210294, progress insts committed: 1950029, IPC: 0.194808
13752385928616: Event_284: system.switch_cpus2 progress event, total committed:19239381, progress insts committed: 1935545, IPC: 0.193361
13752385928616: Event_285: system.switch_cpus3 progress event, total committed:19252678, progress insts committed: 1946547, IPC: 00.19446
13755719261949: Event_285: system.switch_cpus3 progress event, total committed:21207498, progress insts committed: 1954820, IPC: 0.195287
13755719261949: Event_284: system.switch_cpus2 progress event, total committed:21192851, progress insts committed: 1953470, IPC: 0.195152
13755719261949: Event_283: system.switch_cpus1 progress event, total committed:21164824, progress insts committed: 1954530, IPC: 0.195258
13755719261949: Event_282: system.switch_cpus0 progress event, total committed:21219976, progress insts committed: 1955718, IPC: 0.195376
13759052595282: Event_282: system.switch_cpus0 progress event, total committed:23012781, progress insts committed: 1792805, IPC: 0.179101
13759052595282: Event_283: system.switch_cpus1 progress event, total committed:22959754, progress insts committed: 1794930, IPC: 0.179314
13759052595282: Event_284: system.switch_cpus2 progress event, total committed:22999377, progress insts committed: 1806526, IPC: 0.180472
13759052595282: Event_285: system.switch_cpus3 progress event, total committed:23010421, progress insts committed: 1802923, IPC: 0.180112
13762385928615: Event_285: system.switch_cpus3 progress event, total committed:24944264, progress insts committed: 1933843, IPC: 0.193191
13762385928615: Event_284: system.switch_cpus2 progress event, total committed:24939288, progress insts committed: 1939911, IPC: 0.193797
13762385928615: Event_283: system.switch_cpus1 progress event, total committed:24899388, progress insts committed: 1939634, IPC: 0.193769
13762385928615: Event_282: system.switch_cpus0 progress event, total committed:24956983, progress insts committed: 1944202, IPC: 0.194226
13765719261948: Event_282: system.switch_cpus0 progress event, total committed:26906659, progress insts committed: 1949676, IPC: 0.194773
13765719261948: Event_283: system.switch_cpus1 progress event, total committed:26851503, progress insts committed: 1952115, IPC: 0.195016
13765719261948: Event_284: system.switch_cpus2 progress event, total committed:26878504, progress insts committed: 1939216, IPC: 0.193728
13765719261948: Event_285: system.switch_cpus3 progress event, total committed:26889676, progress insts committed: 1945412, IPC: 0.194347
13769052595281: Event_285: system.switch_cpus3 progress event, total committed:28699043, progress insts committed: 1809367, IPC: 0.180756
13769052595281: Event_284: system.switch_cpus2 progress event, total committed:28690344, progress insts committed: 1811840, IPC: 0.181003
13769052595281: Event_283: system.switch_cpus1 progress event, total committed:28656427, progress insts committed: 1804924, IPC: 0.180312
13769052595281: Event_282: system.switch_cpus0 progress event, total committed:28712688, progress insts committed: 1806029, IPC: 0.180422
13772385928614: Event_282: system.switch_cpus0 progress event, total committed:30655096, progress insts committed: 1942408, IPC: 0.194047
13772385928614: Event_283: system.switch_cpus1 progress event, total committed:30600431, progress insts committed: 1944004, IPC: 0.194206
13772385928614: Event_284: system.switch_cpus2 progress event, total committed:30642469, progress insts committed: 1952125, IPC: 0.195017
13772385928614: Event_285: system.switch_cpus3 progress event, total committed:30649130, progress insts committed: 1950087, IPC: 0.194814
13775719261947: Event_285: system.switch_cpus3 progress event, total committed:32438176, progress insts committed: 1789046, IPC: 0.178726
13775719261947: Event_284: system.switch_cpus2 progress event, total committed:32438062, progress insts committed: 1795593, IPC: 00.17938
13775719261947: Event_283: system.switch_cpus1 progress event, total committed:32437679, progress insts committed: 1837248, IPC: 0.183541
13775719261947: Event_282: system.switch_cpus0 progress event, total committed:32438423, progress insts committed: 1783327, IPC: 0.178154
13779052595280: Event_282: system.switch_cpus0 progress event, total committed:34407347, progress insts committed: 1968924, IPC: 0.196696
13779052595280: Event_283: system.switch_cpus1 progress event, total committed:34352975, progress insts committed: 1915296, IPC: 0.191338
13779052595280: Event_284: system.switch_cpus2 progress event, total committed:34379970, progress insts committed: 1941908, IPC: 0.193997
13779052595280: Event_285: system.switch_cpus3 progress event, total committed:34390610, progress insts committed: 1952434, IPC: 0.195048
13782385928613: Event_285: system.switch_cpus3 progress event, total committed:36337398, progress insts committed: 1946788, IPC: 0.194484
13782385928613: Event_284: system.switch_cpus2 progress event, total committed:36325744, progress insts committed: 1945774, IPC: 0.194383
13782385928613: Event_283: system.switch_cpus1 progress event, total committed:36300338, progress insts committed: 1947363, IPC: 0.194542
13782385928613: Event_282: system.switch_cpus0 progress event, total committed:36356025, progress insts committed: 1948678, IPC: 0.194673
13785719261946: Event_282: system.switch_cpus0 progress event, total committed:38167734, progress insts committed: 1811709, IPC: 00.18099
13785719261946: Event_283: system.switch_cpus1 progress event, total committed:38113356, progress insts committed: 1813018, IPC: 00.18112
13785719261946: Event_284: system.switch_cpus2 progress event, total committed:38144936, progress insts committed: 1819192, IPC: 0.181737
13785719261946: Event_285: system.switch_cpus3 progress event, total committed:38154966, progress insts committed: 1817568, IPC: 0.181575
13789052595279: Event_285: system.switch_cpus3 progress event, total committed:40114529, progress insts committed: 1959563, IPC: 00.19576
13789052595279: Event_284: system.switch_cpus2 progress event, total committed:40095132, progress insts committed: 1950196, IPC: 0.194825
13789052595279: Event_283: system.switch_cpus1 progress event, total committed:40076930, progress insts committed: 1963574, IPC: 0.196161
13789052595279: Event_282: system.switch_cpus0 progress event, total committed:40129957, progress insts committed: 1962223, IPC: 0.196026
13792385928612: Event_282: system.switch_cpus0 progress event, total committed:42083824, progress insts committed: 1953867, IPC: 0.195191
13792385928612: Event_283: system.switch_cpus1 progress event, total committed:42030510, progress insts committed: 1953580, IPC: 0.195163
13792385928612: Event_284: system.switch_cpus2 progress event, total committed:42054982, progress insts committed: 1959850, IPC: 0.195789
13792385928612: Event_285: system.switch_cpus3 progress event, total committed:42065446, progress insts committed: 1950917, IPC: 0.194897
13795719261945: Event_285: system.switch_cpus3 progress event, total committed:43861329, progress insts committed: 1795883, IPC: 0.179409
13795719261945: Event_284: system.switch_cpus2 progress event, total committed:43842592, progress insts committed: 1787610, IPC: 0.178582
13795719261945: Event_283: system.switch_cpus1 progress event, total committed:43822666, progress insts committed: 1792156, IPC: 0.179036
13795719261945: Event_282: system.switch_cpus0 progress event, total committed:43877289, progress insts committed: 1793465, IPC: 0.179167
13799052595278: Event_282: system.switch_cpus0 progress event, total committed:45789546, progress insts committed: 1912257, IPC: 0.191034
13799052595278: Event_283: system.switch_cpus1 progress event, total committed:45734346, progress insts committed: 1911680, IPC: 0.190977
13799052595278: Event_284: system.switch_cpus2 progress event, total committed:45749777, progress insts committed: 1907185, IPC: 0.190528
13799052595278: Event_285: system.switch_cpus3 progress event, total committed:45777728, progress insts committed: 1916399, IPC: 0.191448
13802385928611: Event_285: system.switch_cpus3 progress event, total committed:47698987, progress insts committed: 1921259, IPC: 0.191934
13802385928611: Event_284: system.switch_cpus2 progress event, total committed:47672397, progress insts committed: 1922620, IPC: 00.19207
13802385928611: Event_283: system.switch_cpus1 progress event, total committed:47665958, progress insts committed: 1931612, IPC: 0.192968
13802385928611: Event_282: system.switch_cpus0 progress event, total committed:47718806, progress insts committed: 1929260, IPC: 0.192733
13805719261944: Event_282: system.switch_cpus0 progress event, total committed:49533040, progress insts committed: 1814234, IPC: 0.181242
13805719261944: Event_283: system.switch_cpus1 progress event, total committed:49473367, progress insts committed: 1807409, IPC: 00.18056
13805719261944: Event_284: system.switch_cpus2 progress event, total committed:49494127, progress insts committed: 1821730, IPC: 0.181991
13805719261944: Event_285: system.switch_cpus3 progress event, total committed:49506706, progress insts committed: 1807719, IPC: 0.180591
13809052595277: Event_285: system.switch_cpus3 progress event, total committed:51454091, progress insts committed: 1947385, IPC: 0.194544
13809052595277: Event_284: system.switch_cpus2 progress event, total committed:51439332, progress insts committed: 1945205, IPC: 0.194326
13809052595277: Event_283: system.switch_cpus1 progress event, total committed:51423084, progress insts committed: 1949717, IPC: 0.194777
13809052595277: Event_282: system.switch_cpus0 progress event, total committed:51480899, progress insts committed: 1947859, IPC: 0.194591
13812385928610: Event_282: system.switch_cpus0 progress event, total committed:53311473, progress insts committed: 1830574, IPC: 0.182874
13812385928610: Event_283: system.switch_cpus1 progress event, total committed:53250711, progress insts committed: 1827627, IPC: 00.18258
13812385928610: Event_284: system.switch_cpus2 progress event, total committed:53268806, progress insts committed: 1829474, IPC: 0.182764
13812385928610: Event_285: system.switch_cpus3 progress event, total committed:53280904, progress insts committed: 1826813, IPC: 0.182499
13815719261943: Event_285: system.switch_cpus3 progress event, total committed:55234915, progress insts committed: 1954011, IPC: 0.195206
13815719261943: Event_284: system.switch_cpus2 progress event, total committed:55213284, progress insts committed: 1944478, IPC: 0.194253
13815719261943: Event_283: system.switch_cpus1 progress event, total committed:55206305, progress insts committed: 1955594, IPC: 0.195364
13815719261943: Event_282: system.switch_cpus0 progress event, total committed:55265008, progress insts committed: 1953535, IPC: 0.195158
13819052595276: Event_282: system.switch_cpus0 progress event, total committed:57208408, progress insts committed: 1943400, IPC: 0.194146
13819052595276: Event_283: system.switch_cpus1 progress event, total committed:57146414, progress insts committed: 1940109, IPC: 0.193817
13819052595276: Event_284: system.switch_cpus2 progress event, total committed:57164428, progress insts committed: 1951144, IPC: 0.194919
13819052595276: Event_285: system.switch_cpus3 progress event, total committed:57186240, progress insts committed: 1951325, IPC: 0.194937
13822385928609: Event_285: system.switch_cpus3 progress event, total committed:58985844, progress insts committed: 1799604, IPC: 00.17978
13822385928609: Event_284: system.switch_cpus2 progress event, total committed:58965628, progress insts committed: 1801200, IPC: 00.17994
13822385928609: Event_283: system.switch_cpus1 progress event, total committed:58943816, progress insts committed: 1797402, IPC: 00.17956
13822385928609: Event_282: system.switch_cpus0 progress event, total committed:59003227, progress insts committed: 1794819, IPC: 0.179302
13825719261942: Event_282: system.switch_cpus0 progress event, total committed:60968926, progress insts committed: 1965699, IPC: 0.196373
13825719261942: Event_283: system.switch_cpus1 progress event, total committed:60908467, progress insts committed: 1964651, IPC: 0.196269
13825719261942: Event_284: system.switch_cpus2 progress event, total committed:60920006, progress insts committed: 1954378, IPC: 0.195242
13825719261942: Event_285: system.switch_cpus3 progress event, total committed:60939956, progress insts committed: 1954112, IPC: 0.195216
13829052595275: Event_285: system.switch_cpus3 progress event, total committed:62892358, progress insts committed: 1952402, IPC: 0.195045
13829052595275: Event_284: system.switch_cpus2 progress event, total committed:62870546, progress insts committed: 1950540, IPC: 0.194859
13829052595275: Event_283: system.switch_cpus1 progress event, total committed:62853178, progress insts committed: 1944711, IPC: 0.194277
13829052595275: Event_282: system.switch_cpus0 progress event, total committed:62911866, progress insts committed: 1942940, IPC: 000.1941
13832385928608: Event_282: system.switch_cpus0 progress event, total committed:64716548, progress insts committed: 1804682, IPC: 0.180288
13832385928608: Event_283: system.switch_cpus1 progress event, total committed:64653658, progress insts committed: 1800480, IPC: 0.179868
13832385928608: Event_284: system.switch_cpus2 progress event, total committed:64678372, progress insts committed: 1807826, IPC: 0.180602
13832385928608: Event_285: system.switch_cpus3 progress event, total committed:64692790, progress insts committed: 1800432, IPC: 0.179863
13835719261941: Event_285: system.switch_cpus3 progress event, total committed:66633838, progress insts committed: 1941048, IPC: 0.193911
13835719261941: Event_284: system.switch_cpus2 progress event, total committed:66625801, progress insts committed: 1947429, IPC: 0.194548
13835719261941: Event_283: system.switch_cpus1 progress event, total committed:66603932, progress insts committed: 1950274, IPC: 0.194832
13835719261941: Event_282: system.switch_cpus0 progress event, total committed:66664162, progress insts committed: 1947614, IPC: 0.194567
13839052595274: Event_282: system.switch_cpus0 progress event, total committed:68468381, progress insts committed: 1804219, IPC: 0.180241
13839052595274: Event_283: system.switch_cpus1 progress event, total committed:68414364, progress insts committed: 1810432, IPC: 0.180862
13839052595274: Event_284: system.switch_cpus2 progress event, total committed:68433684, progress insts committed: 1807883, IPC: 0.180608
13839052595274: Event_285: system.switch_cpus3 progress event, total committed:68456041, progress insts committed: 1822203, IPC: 0.182038
13842385928607: Event_285: system.switch_cpus3 progress event, total committed:70405642, progress insts committed: 1949601, IPC: 0.194765
13842385928607: Event_284: system.switch_cpus2 progress event, total committed:70396726, progress insts committed: 1963042, IPC: 0.196108
13842385928607: Event_283: system.switch_cpus1 progress event, total committed:70372789, progress insts committed: 1958425, IPC: 0.195647
13842385928607: Event_282: system.switch_cpus0 progress event, total committed:70432279, progress insts committed: 1963898, IPC: 0.196193
13845719261940: Event_282: system.switch_cpus0 progress event, total committed:72385368, progress insts committed: 1953089, IPC: 0.195114
13845719261940: Event_283: system.switch_cpus1 progress event, total committed:72332394, progress insts committed: 1959605, IPC: 0.195765
13845719261940: Event_284: system.switch_cpus2 progress event, total committed:72345276, progress insts committed: 1948550, IPC: 00.19466
13845719261940: Event_285: system.switch_cpus3 progress event, total committed:72366269, progress insts committed: 1960627, IPC: 0.195867
13849052595273: Event_285: system.switch_cpus3 progress event, total committed:74173456, progress insts committed: 1807187, IPC: 0.180538
13849052595273: Event_284: system.switch_cpus2 progress event, total committed:74164806, progress insts committed: 1819530, IPC: 0.181771
13849052595273: Event_283: system.switch_cpus1 progress event, total committed:74139801, progress insts committed: 1807407, IPC: 00.18056
13849052595273: Event_282: system.switch_cpus0 progress event, total committed:74201386, progress insts committed: 1816018, IPC: 00.18142
13852385928606: Event_282: system.switch_cpus0 progress event, total committed:76153256, progress insts committed: 1951870, IPC: 0.194992
13852385928606: Event_283: system.switch_cpus1 progress event, total committed:76090366, progress insts committed: 1950565, IPC: 0.194861
13852385928606: Event_284: system.switch_cpus2 progress event, total committed:76106614, progress insts committed: 1941808, IPC: 0.193987
13852385928606: Event_285: system.switch_cpus3 progress event, total committed:76123464, progress insts committed: 1950008, IPC: 0.194806
13855719261939: Event_285: system.switch_cpus3 progress event, total committed:78073980, progress insts committed: 1950516, IPC: 0.194857
13855719261939: Event_284: system.switch_cpus2 progress event, total committed:78052707, progress insts committed: 1946093, IPC: 0.194415
13855719261939: Event_283: system.switch_cpus1 progress event, total committed:78039236, progress insts committed: 1948870, IPC: 0.194692
13855719261939: Event_282: system.switch_cpus0 progress event, total committed:78092206, progress insts committed: 1938950, IPC: 0.193701
13859052595272: Event_282: system.switch_cpus0 progress event, total committed:79879490, progress insts committed: 1787284, IPC: 00.17855
13859052595272: Event_283: system.switch_cpus1 progress event, total committed:79815485, progress insts committed: 1776249, IPC: 0.177447
13859052595272: Event_284: system.switch_cpus2 progress event, total committed:79837191, progress insts committed: 1784484, IPC: 00.17827
13859052595272: Event_285: system.switch_cpus3 progress event, total committed:79860001, progress insts committed: 1786021, IPC: 0.178423
13862385928605: Event_285: system.switch_cpus3 progress event, total committed:81785025, progress insts committed: 1925024, IPC: 00.19231
13862385928605: Event_284: system.switch_cpus2 progress event, total committed:81762436, progress insts committed: 1925245, IPC: 0.192332
13862385928605: Event_283: system.switch_cpus1 progress event, total committed:81743415, progress insts committed: 1927930, IPC: 000.1926
13862385928605: Event_282: system.switch_cpus0 progress event, total committed:81809252, progress insts committed: 1929762, IPC: 0.192783
13865719261938: Event_282: system.switch_cpus0 progress event, total committed:83729979, progress insts committed: 1920727, IPC: 0.191881
13865719261938: Event_283: system.switch_cpus1 progress event, total committed:83665248, progress insts committed: 1921833, IPC: 0.191991
13865719261938: Event_284: system.switch_cpus2 progress event, total committed:83693636, progress insts committed: 1931200, IPC: 0.192927
13865719261938: Event_285: system.switch_cpus3 progress event, total committed:83707947, progress insts committed: 1922922, IPC: 000.1921
13869052595271: Event_285: system.switch_cpus3 progress event, total committed:85533890, progress insts committed: 1825943, IPC: 0.182412
13869052595271: Event_284: system.switch_cpus2 progress event, total committed:85517344, progress insts committed: 1823708, IPC: 0.182188
13869052595271: Event_283: system.switch_cpus1 progress event, total committed:85483054, progress insts committed: 1817806, IPC: 0.181599
13869052595271: Event_282: system.switch_cpus0 progress event, total committed:85544620, progress insts committed: 1814641, IPC: 0.181283
13872385928604: Event_282: system.switch_cpus0 progress event, total committed:87497524, progress insts committed: 1952904, IPC: 0.195095
13872385928604: Event_283: system.switch_cpus1 progress event, total committed:87435456, progress insts committed: 1952402, IPC: 0.195045
13872385928604: Event_284: system.switch_cpus2 progress event, total committed:87467036, progress insts committed: 1949692, IPC: 0.194774
13872385928604: Event_285: system.switch_cpus3 progress event, total committed:87475742, progress insts committed: 1941852, IPC: 0.193991
13875719261937: Event_285: system.switch_cpus3 progress event, total committed:89280394, progress insts committed: 1804652, IPC: 0.180285
13875719261937: Event_284: system.switch_cpus2 progress event, total committed:89256454, progress insts committed: 1789418, IPC: 0.178763
13875719261937: Event_283: system.switch_cpus1 progress event, total committed:89235302, progress insts committed: 1799846, IPC: 0.179805
13875719261937: Event_282: system.switch_cpus0 progress event, total committed:89302704, progress insts committed: 1805180, IPC: 0.180337
13879052595270: Event_282: system.switch_cpus0 progress event, total committed:91220802, progress insts committed: 1918098, IPC: 0.191618
13879052595270: Event_283: system.switch_cpus1 progress event, total committed:91157280, progress insts committed: 1921978, IPC: 0.192006
13879052595270: Event_284: system.switch_cpus2 progress event, total committed:91186398, progress insts committed: 1929944, IPC: 0.192801
13879052595270: Event_285: system.switch_cpus3 progress event, total committed:91200876, progress insts committed: 1920482, IPC: 0.191856
13882385928603: Event_285: system.switch_cpus3 progress event, total committed:93121573, progress insts committed: 1920697, IPC: 0.191878
13882385928603: Event_284: system.switch_cpus2 progress event, total committed:93101273, progress insts committed: 1914875, IPC: 0.191296
13882385928603: Event_283: system.switch_cpus1 progress event, total committed:93073896, progress insts committed: 1916616, IPC: 00.19147
13882385928603: Event_282: system.switch_cpus0 progress event, total committed:93138914, progress insts committed: 1918112, IPC: 0.191619
13885719261936: Event_282: system.switch_cpus0 progress event, total committed:94941419, progress insts committed: 1802505, IPC: 00.18007
13885719261936: Event_283: system.switch_cpus1 progress event, total committed:94878820, progress insts committed: 1804924, IPC: 0.180312
13885719261936: Event_284: system.switch_cpus2 progress event, total committed:94909044, progress insts committed: 1807771, IPC: 0.180596
13885719261936: Event_285: system.switch_cpus3 progress event, total committed:94924399, progress insts committed: 1802826, IPC: 0.180102
13889052595269: Event_285: system.switch_cpus3 progress event, total committed:96861128, progress insts committed: 1936729, IPC: 0.193479
13889052595269: Event_284: system.switch_cpus2 progress event, total committed:96842708, progress insts committed: 1933664, IPC: 0.193173
13889052595269: Event_283: system.switch_cpus1 progress event, total committed:96818167, progress insts committed: 1939347, IPC: 0.193741
13889052595269: Event_282: system.switch_cpus0 progress event, total committed:96879748, progress insts committed: 1938329, IPC: 0.193639
13892385928602: Event_282: system.switch_cpus0 progress event, total committed:98828021, progress insts committed: 1948273, IPC: 0.194632
13892385928602: Event_283: system.switch_cpus1 progress event, total committed:98767664, progress insts committed: 1949497, IPC: 0.194755
13892385928602: Event_284: system.switch_cpus2 progress event, total committed:98782142, progress insts committed: 1939434, IPC: 0.193749
13892385928602: Event_285: system.switch_cpus3 progress event, total committed:98807933, progress insts committed: 1946805, IPC: 0.194486
13895719261935: Event_285: system.switch_cpus3 progress event, total committed:100617768, progress insts committed: 1809835, IPC: 0.180803
13895719261935: Event_284: system.switch_cpus2 progress event, total committed:100603271, progress insts committed: 1821129, IPC: 0.181931
13895719261935: Event_283: system.switch_cpus1 progress event, total committed:100573442, progress insts committed: 1805778, IPC: 0.180397
13895719261935: Event_282: system.switch_cpus0 progress event, total committed:100631868, progress insts committed: 1803847, IPC: 0.180204
13899052595268: Event_282: system.switch_cpus0 progress event, total committed:102577899, progress insts committed: 1946031, IPC: 0.194408
13899052595268: Event_283: system.switch_cpus1 progress event, total committed:102519497, progress insts committed: 1946055, IPC: 0.194411
13899052595268: Event_284: system.switch_cpus2 progress event, total committed:102544256, progress insts committed: 1940985, IPC: 0.193904
13899052595268: Event_285: system.switch_cpus3 progress event, total committed:102559508, progress insts committed: 1941740, IPC: 00.19398
13902385928601: Event_285: system.switch_cpus3 progress event, total committed:104351422, progress insts committed: 1791914, IPC: 0.179012
13902385928601: Event_284: system.switch_cpus2 progress event, total committed:104331583, progress insts committed: 1787327, IPC: 0.178554
13902385928601: Event_283: system.switch_cpus1 progress event, total committed:104309812, progress insts committed: 1790315, IPC: 0.178852
13902385928601: Event_282: system.switch_cpus0 progress event, total committed:104366560, progress insts committed: 1788661, IPC: 0.178687
13905719261934: Event_282: system.switch_cpus0 progress event, total committed:106282049, progress insts committed: 1915489, IPC: 0.191357
13905719261934: Event_283: system.switch_cpus1 progress event, total committed:106226280, progress insts committed: 1916468, IPC: 0.191455
13905719261934: Event_284: system.switch_cpus2 progress event, total committed:106245967, progress insts committed: 1914384, IPC: 0.191247
13905719261934: Event_285: system.switch_cpus3 progress event, total committed:106270903, progress insts committed: 1919481, IPC: 0.191756
13909052595267: Event_285: system.switch_cpus3 progress event, total committed:108183785, progress insts committed: 1912882, IPC: 0.191097
13909052595267: Event_284: system.switch_cpus2 progress event, total committed:108153681, progress insts committed: 1907714, IPC: 0.190581
13909052595267: Event_283: system.switch_cpus1 progress event, total committed:108148534, progress insts committed: 1922254, IPC: 0.192033
13909052595267: Event_282: system.switch_cpus0 progress event, total committed:108203501, progress insts committed: 1921452, IPC: 0.191953
13912385928600: Event_282: system.switch_cpus0 progress event, total committed:109954073, progress insts committed: 1750572, IPC: 0.174882
13912385928600: Event_283: system.switch_cpus1 progress event, total committed:109907419, progress insts committed: 1758885, IPC: 0.175713
13912385928600: Event_284: system.switch_cpus2 progress event, total committed:109920474, progress insts committed: 1766793, IPC: 0.176503
13912385928600: Event_285: system.switch_cpus3 progress event, total committed:109939803, progress insts committed: 1756018, IPC: 0.175426
13915719261933: Event_285: system.switch_cpus3 progress event, total committed:111789483, progress insts committed: 1849680, IPC: 0.184783
13915719261933: Event_284: system.switch_cpus2 progress event, total committed:111768568, progress insts committed: 1848094, IPC: 0.184625
13915719261933: Event_283: system.switch_cpus1 progress event, total committed:111765209, progress insts committed: 1857790, IPC: 0.185593
13915719261933: Event_282: system.switch_cpus0 progress event, total committed:111811050, progress insts committed: 1856977, IPC: 0.185512
13919052595266: Event_282: system.switch_cpus0 progress event, total committed:113656112, progress insts committed: 1845062, IPC: 0.184322
13919052595266: Event_283: system.switch_cpus1 progress event, total committed:113608657, progress insts committed: 1843448, IPC: 00.18416
13919052595266: Event_284: system.switch_cpus2 progress event, total committed:113618678, progress insts committed: 1850110, IPC: 0.184826
13919052595266: Event_285: system.switch_cpus3 progress event, total committed:113641396, progress insts committed: 1851913, IPC: 0.185006
13922385928599: Event_285: system.switch_cpus3 progress event, total committed:115414400, progress insts committed: 1773004, IPC: 0.177123
13922385928599: Event_284: system.switch_cpus2 progress event, total committed:115394197, progress insts committed: 1775519, IPC: 0.177374
13922385928599: Event_283: system.switch_cpus1 progress event, total committed:115385334, progress insts committed: 1776677, IPC: 00.17749
13922385928599: Event_282: system.switch_cpus0 progress event, total committed:115437464, progress insts committed: 1781352, IPC: 0.177957
13925719261932: Event_282: system.switch_cpus0 progress event, total committed:117352438, progress insts committed: 1914974, IPC: 0.191306
13925719261932: Event_283: system.switch_cpus1 progress event, total committed:117303622, progress insts committed: 1918288, IPC: 0.191637
13925719261932: Event_284: system.switch_cpus2 progress event, total committed:117312669, progress insts committed: 1918472, IPC: 0.191655
13925719261932: Event_285: system.switch_cpus3 progress event, total committed:117322151, progress insts committed: 1907751, IPC: 0.190584
13929052595265: Event_285: system.switch_cpus3 progress event, total committed:119228895, progress insts committed: 1906744, IPC: 0.190484
13929052595265: Event_284: system.switch_cpus2 progress event, total committed:119208144, progress insts committed: 1895475, IPC: 0.189358
13929052595265: Event_283: system.switch_cpus1 progress event, total committed:119202824, progress insts committed: 1899202, IPC: 00.18973
13929052595265: Event_282: system.switch_cpus0 progress event, total committed:119251718, progress insts committed: 1899280, IPC: 0.189738
13932385928598: Event_282: system.switch_cpus0 progress event, total committed:120979196, progress insts committed: 1727478, IPC: 0.172575
13932385928598: Event_283: system.switch_cpus1 progress event, total committed:120934451, progress insts committed: 1731627, IPC: 00.17299
13932385928598: Event_284: system.switch_cpus2 progress event, total committed:120935306, progress insts committed: 1727162, IPC: 0.172543
13932385928598: Event_285: system.switch_cpus3 progress event, total committed:120953370, progress insts committed: 1724475, IPC: 0.172275
13935719261931: Event_285: system.switch_cpus3 progress event, total committed:122807625, progress insts committed: 1854255, IPC: 00.18524
13935719261931: Event_284: system.switch_cpus2 progress event, total committed:122787975, progress insts committed: 1852669, IPC: 0.185082
13935719261931: Event_283: system.switch_cpus1 progress event, total committed:122776813, progress insts committed: 1842362, IPC: 0.184052
13935719261931: Event_282: system.switch_cpus0 progress event, total committed:122821073, progress insts committed: 1841877, IPC: 0.184004
13939052595264: Event_282: system.switch_cpus0 progress event, total committed:124656494, progress insts committed: 1835421, IPC: 0.183359
13939052595264: Event_283: system.switch_cpus1 progress event, total committed:124613529, progress insts committed: 1836716, IPC: 0.183488
13939052595264: Event_284: system.switch_cpus2 progress event, total committed:124624173, progress insts committed: 1836198, IPC: 0.183436
13939052595264: Event_285: system.switch_cpus3 progress event, total committed:124643621, progress insts committed: 1835996, IPC: 0.183416
13942385928597: Event_285: system.switch_cpus3 progress event, total committed:126328378, progress insts committed: 1684757, IPC: 0.168307
13942385928597: Event_284: system.switch_cpus2 progress event, total committed:126320096, progress insts committed: 1695923, IPC: 0.169423
13942385928597: Event_283: system.switch_cpus1 progress event, total committed:126313712, progress insts committed: 1700183, IPC: 0.169848
13942385928597: Event_282: system.switch_cpus0 progress event, total committed:126348406, progress insts committed: 1691912, IPC: 0.169022
13945719261930: Event_282: system.switch_cpus0 progress event, total committed:128159600, progress insts committed: 1811194, IPC: 0.180938
13945719261930: Event_283: system.switch_cpus1 progress event, total committed:128128098, progress insts committed: 1814386, IPC: 0.181257
13945719261930: Event_284: system.switch_cpus2 progress event, total committed:128135536, progress insts committed: 1815440, IPC: 0.181362
13945719261930: Event_285: system.switch_cpus3 progress event, total committed:128150442, progress insts committed: 1822064, IPC: 0.182024
13949052595263: Event_285: system.switch_cpus3 progress event, total committed:129935740, progress insts committed: 1785298, IPC: 0.178351
13949052595263: Event_284: system.switch_cpus2 progress event, total committed:129935677, progress insts committed: 1800141, IPC: 0.179834
13949052595263: Event_283: system.switch_cpus1 progress event, total committed:129935604, progress insts committed: 1807506, IPC: 00.18057
13949052595263: Event_282: system.switch_cpus0 progress event, total committed:129935948, progress insts committed: 1776348, IPC: 0.177457
13952385928596: Event_282: system.switch_cpus0 progress event, total committed:131705798, progress insts committed: 1769850, IPC: 0.176808
13952385928596: Event_283: system.switch_cpus1 progress event, total committed:131669305, progress insts committed: 1733701, IPC: 0.173197
13952385928596: Event_284: system.switch_cpus2 progress event, total committed:131677857, progress insts committed: 1742180, IPC: 0.174044
13952385928596: Event_285: system.switch_cpus3 progress event, total committed:131688484, progress insts committed: 1752744, IPC: 0.175099
13955719261929: Event_285: system.switch_cpus3 progress event, total committed:133549636, progress insts committed: 1861152, IPC: 0.185929
13955719261929: Event_284: system.switch_cpus2 progress event, total committed:133540113, progress insts committed: 1862256, IPC: 0.186039
13955719261929: Event_283: system.switch_cpus1 progress event, total committed:133530292, progress insts committed: 1860987, IPC: 0.185913
13955719261929: Event_282: system.switch_cpus0 progress event, total committed:133555410, progress insts committed: 1849612, IPC: 0.184776
13959052595262: Event_282: system.switch_cpus0 progress event, total committed:135289174, progress insts committed: 1733764, IPC: 0.173203
13959052595262: Event_283: system.switch_cpus1 progress event, total committed:135264055, progress insts committed: 1733763, IPC: 0.173203
13959052595262: Event_284: system.switch_cpus2 progress event, total committed:135274171, progress insts committed: 1734058, IPC: 0.173232
13959052595262: Event_285: system.switch_cpus3 progress event, total committed:135285286, progress insts committed: 1735650, IPC: 0.173391
13962385928595: Event_285: system.switch_cpus3 progress event, total committed:137145878, progress insts committed: 1860592, IPC: 0.185873
13962385928595: Event_284: system.switch_cpus2 progress event, total committed:137136834, progress insts committed: 1862663, IPC: 00.18608
13962385928595: Event_283: system.switch_cpus1 progress event, total committed:137127258, progress insts committed: 1863203, IPC: 0.186134
13962385928595: Event_282: system.switch_cpus0 progress event, total committed:137158646, progress insts committed: 1869472, IPC: 00.18676
13965719261928: Event_282: system.switch_cpus0 progress event, total committed:139037228, progress insts committed: 1878582, IPC: 00.18767
13965719261928: Event_283: system.switch_cpus1 progress event, total committed:139005321, progress insts committed: 1878063, IPC: 0.187618
13965719261928: Event_284: system.switch_cpus2 progress event, total committed:139017302, progress insts committed: 1880468, IPC: 0.187859
13965719261928: Event_285: system.switch_cpus3 progress event, total committed:139024750, progress insts committed: 1878872, IPC: 0.187699
13969052595261: Event_285: system.switch_cpus3 progress event, total committed:140767848, progress insts committed: 1743098, IPC: 0.174135
13969052595261: Event_284: system.switch_cpus2 progress event, total committed:140765720, progress insts committed: 1748418, IPC: 0.174667
13969052595261: Event_283: system.switch_cpus1 progress event, total committed:140745541, progress insts committed: 1740220, IPC: 0.173848
13969052595261: Event_282: system.switch_cpus0 progress event, total committed:140780084, progress insts committed: 1742856, IPC: 0.174111
13972385928594: Event_282: system.switch_cpus0 progress event, total committed:142644592, progress insts committed: 1864508, IPC: 0.186264
13972385928594: Event_283: system.switch_cpus1 progress event, total committed:142612334, progress insts committed: 1866793, IPC: 0.186493
13972385928594: Event_284: system.switch_cpus2 progress event, total committed:142630760, progress insts committed: 1865040, IPC: 0.186317
13972385928594: Event_285: system.switch_cpus3 progress event, total committed:142636325, progress insts committed: 1868477, IPC: 0.186661
13975719261927: Event_285: system.switch_cpus3 progress event, total committed:144493328, progress insts committed: 1857003, IPC: 0.185515
13975719261927: Event_284: system.switch_cpus2 progress event, total committed:144492782, progress insts committed: 1862022, IPC: 0.186016
13975719261927: Event_283: system.switch_cpus1 progress event, total committed:144478662, progress insts committed: 1866328, IPC: 0.186446
13975719261927: Event_282: system.switch_cpus0 progress event, total committed:144499549, progress insts committed: 1854957, IPC: 00.18531
13979052595260: Event_282: system.switch_cpus0 progress event, total committed:146240985, progress insts committed: 1741436, IPC: 0.173969
13979052595260: Event_283: system.switch_cpus1 progress event, total committed:146218036, progress insts committed: 1739374, IPC: 0.173763
13979052595260: Event_284: system.switch_cpus2 progress event, total committed:146229005, progress insts committed: 1736223, IPC: 0.173449
13979052595260: Event_285: system.switch_cpus3 progress event, total committed:146231695, progress insts committed: 1738367, IPC: 0.173663
13982385928593: Event_285: system.switch_cpus3 progress event, total committed:148102760, progress insts committed: 1871065, IPC: 0.186919
13982385928593: Event_284: system.switch_cpus2 progress event, total committed:148098749, progress insts committed: 1869744, IPC: 0.186787
13982385928593: Event_283: system.switch_cpus1 progress event, total committed:148077224, progress insts committed: 1859188, IPC: 0.185733
13982385928593: Event_282: system.switch_cpus0 progress event, total committed:148109432, progress insts committed: 1868447, IPC: 0.186658
13985719261926: Event_282: system.switch_cpus0 progress event, total committed:149972301, progress insts committed: 1862869, IPC: 0.186101
13985719261926: Event_283: system.switch_cpus1 progress event, total committed:149938755, progress insts committed: 1861531, IPC: 0.185967
13985719261926: Event_284: system.switch_cpus2 progress event, total committed:149960352, progress insts committed: 1861603, IPC: 0.185974
13985719261926: Event_285: system.switch_cpus3 progress event, total committed:149967885, progress insts committed: 1865125, IPC: 0.186326
13989052595259: Event_285: system.switch_cpus3 progress event, total committed:151698130, progress insts committed: 1730245, IPC: 0.172851
13989052595259: Event_284: system.switch_cpus2 progress event, total committed:151687200, progress insts committed: 1726848, IPC: 0.172512
13989052595259: Event_283: system.switch_cpus1 progress event, total committed:151673601, progress insts committed: 1734846, IPC: 0.173311
13989052595259: Event_282: system.switch_cpus0 progress event, total committed:151701035, progress insts committed: 1728734, IPC: 0.172701
13992385928592: Event_282: system.switch_cpus0 progress event, total committed:153563170, progress insts committed: 1862135, IPC: 0.186027
13992385928592: Event_283: system.switch_cpus1 progress event, total committed:153535102, progress insts committed: 1861501, IPC: 0.185964
13992385928592: Event_284: system.switch_cpus2 progress event, total committed:153555268, progress insts committed: 1868068, IPC: 00.18662
13992385928592: Event_285: system.switch_cpus3 progress event, total committed:153561816, progress insts committed: 1863686, IPC: 0.186182
13995719261925: Event_285: system.switch_cpus3 progress event, total committed:155402264, progress insts committed: 1840448, IPC: 0.183861
13995719261925: Event_284: system.switch_cpus2 progress event, total committed:155389792, progress insts committed: 1834524, IPC: 0.183269
13995719261925: Event_283: system.switch_cpus1 progress event, total committed:155372654, progress insts committed: 1837552, IPC: 0.183571
13995719261925: Event_282: system.switch_cpus0 progress event, total committed:155402560, progress insts committed: 1839390, IPC: 0.183755
13999052595258: Event_282: system.switch_cpus0 progress event, total committed:157104818, progress insts committed: 1702258, IPC: 0.170056
13999052595258: Event_283: system.switch_cpus1 progress event, total committed:157067418, progress insts committed: 1694764, IPC: 0.169307
13999052595258: Event_284: system.switch_cpus2 progress event, total committed:157089926, progress insts committed: 1700134, IPC: 0.169843
13999052595258: Event_285: system.switch_cpus3 progress event, total committed:157104472, progress insts committed: 1702208, IPC: 0.170051
14002385928591: Event_285: system.switch_cpus3 progress event, total committed:158927515, progress insts committed: 1823043, IPC: 0.182122
14002385928591: Event_284: system.switch_cpus2 progress event, total committed:158911518, progress insts committed: 1821592, IPC: 0.181977
14002385928591: Event_283: system.switch_cpus1 progress event, total committed:158895154, progress insts committed: 1827736, IPC: 0.182591
14002385928591: Event_282: system.switch_cpus0 progress event, total committed:158928010, progress insts committed: 1823192, IPC: 0.182137
14005719261924: Event_282: system.switch_cpus0 progress event, total committed:160725638, progress insts committed: 1797628, IPC: 0.179583
14005719261924: Event_283: system.switch_cpus1 progress event, total committed:160725188, progress insts committed: 1830034, IPC: 00.18282
14005719261924: Event_284: system.switch_cpus2 progress event, total committed:160725479, progress insts committed: 1813961, IPC: 0.181215
14005719261924: Event_285: system.switch_cpus3 progress event, total committed:160725601, progress insts committed: 1798086, IPC: 0.179629
14009052595257: Event_285: system.switch_cpus3 progress event, total committed:162438274, progress insts committed: 1712673, IPC: 0.171096
14009052595257: Event_284: system.switch_cpus2 progress event, total committed:162426041, progress insts committed: 1700562, IPC: 0.169886
14009052595257: Event_283: system.switch_cpus1 progress event, total committed:162404934, progress insts committed: 1679746, IPC: 0.167807
14009052595257: Event_282: system.switch_cpus0 progress event, total committed:162438809, progress insts committed: 1713171, IPC: 0.171146
14012385928590: Event_282: system.switch_cpus0 progress event, total committed:164254014, progress insts committed: 1815205, IPC: 0.181339
14012385928590: Event_283: system.switch_cpus1 progress event, total committed:164220384, progress insts committed: 1815450, IPC: 0.181363
14012385928590: Event_284: system.switch_cpus2 progress event, total committed:164241246, progress insts committed: 1815205, IPC: 0.181339
14012385928590: Event_285: system.switch_cpus3 progress event, total committed:164255078, progress insts committed: 1816804, IPC: 0.181499
14015719261923: Event_285: system.switch_cpus3 progress event, total committed:165946838, progress insts committed: 1691760, IPC: 0.169007
14015719261923: Event_284: system.switch_cpus2 progress event, total committed:165935894, progress insts committed: 1694648, IPC: 0.169295
14015719261923: Event_283: system.switch_cpus1 progress event, total committed:165916020, progress insts committed: 1695636, IPC: 0.169394
14015719261923: Event_282: system.switch_cpus0 progress event, total committed:165947294, progress insts committed: 1693280, IPC: 0.169159
14019052595256: Event_282: system.switch_cpus0 progress event, total committed:167481371, progress insts committed: 1534077, IPC: 0.153254
14019052595256: Event_283: system.switch_cpus1 progress event, total committed:167448476, progress insts committed: 1532456, IPC: 0.153092
14019052595256: Event_284: system.switch_cpus2 progress event, total committed:167469515, progress insts committed: 1533621, IPC: 0.153209
14019052595256: Event_285: system.switch_cpus3 progress event, total committed:167481202, progress insts committed: 1534364, IPC: 0.153283
14022385928589: Event_285: system.switch_cpus3 progress event, total committed:169022352, progress insts committed: 1541150, IPC: 0.153961
14022385928589: Event_284: system.switch_cpus2 progress event, total committed:169019214, progress insts committed: 1549699, IPC: 0.154815
14022385928589: Event_283: system.switch_cpus1 progress event, total committed:168990942, progress insts committed: 1542466, IPC: 0.154092
14022385928589: Event_282: system.switch_cpus0 progress event, total committed:169022406, progress insts committed: 1541035, IPC: 0.153949
14025719261922: Event_282: system.switch_cpus0 progress event, total committed:170314207, progress insts committed: 1291801, IPC: 0.129051
14025719261922: Event_283: system.switch_cpus1 progress event, total committed:170313731, progress insts committed: 1322789, IPC: 0.132147
14025719261922: Event_284: system.switch_cpus2 progress event, total committed:170313988, progress insts committed: 1294774, IPC: 0.129348
14025719261922: Event_285: system.switch_cpus3 progress event, total committed:170314187, progress insts committed: 1291835, IPC: 0.129054
14029052595255: Event_285: system.switch_cpus3 progress event, total committed:170463172, progress insts committed: 148985, IPC: 0.0148836
14029052595255: Event_284: system.switch_cpus2 progress event, total committed:170463041, progress insts committed: 149053, IPC: 0.0148904
14029052595255: Event_283: system.switch_cpus1 progress event, total committed:170462700, progress insts committed: 148969, IPC: 0.014882
14029052595255: Event_282: system.switch_cpus0 progress event, total committed:170463221, progress insts committed: 149014, IPC: 0.0148865
14032385928588: Event_282: system.switch_cpus0 progress event, total committed:170613692, progress insts committed: 150471, IPC: 0.0150321
14032385928588: Event_283: system.switch_cpus1 progress event, total committed:170613193, progress insts committed: 150493, IPC: 0.0150343
14032385928588: Event_284: system.switch_cpus2 progress event, total committed:170613514, progress insts committed: 150473, IPC: 0.0150323
14032385928588: Event_285: system.switch_cpus3 progress event, total committed:170613659, progress insts committed: 150487, IPC: 0.0150337
14035719261921: Event_285: system.switch_cpus3 progress event, total committed:170761908, progress insts committed: 148249, IPC: 0.0148101
14035719261921: Event_284: system.switch_cpus2 progress event, total committed:170761751, progress insts committed: 148237, IPC: 0.0148089
14035719261921: Event_283: system.switch_cpus1 progress event, total committed:170761436, progress insts committed: 148243, IPC: 0.0148095
14035719261921: Event_282: system.switch_cpus0 progress event, total committed:170761922, progress insts committed: 148230, IPC: 0.0148082
14039052595254: Event_282: system.switch_cpus0 progress event, total committed:170904958, progress insts committed: 143036, IPC: 0.0142893
14039052595254: Event_283: system.switch_cpus1 progress event, total committed:170904404, progress insts committed: 142968, IPC: 0.0142825
14039052595254: Event_284: system.switch_cpus2 progress event, total committed:170904795, progress insts committed: 143044, IPC: 0.0142901
14039052595254: Event_285: system.switch_cpus3 progress event, total committed:170904957, progress insts committed: 143049, IPC: 0.0142906
14042385928587: Event_285: system.switch_cpus3 progress event, total committed:171050308, progress insts committed: 145351, IPC: 0.0145206
14042385928587: Event_284: system.switch_cpus2 progress event, total committed:171050194, progress insts committed: 145399, IPC: 0.0145254
14042385928587: Event_283: system.switch_cpus1 progress event, total committed:171049808, progress insts committed: 145404, IPC: 0.0145259
14042385928587: Event_282: system.switch_cpus0 progress event, total committed:171050321, progress insts committed: 145363, IPC: 0.0145218
14045719261920: Event_282: system.switch_cpus0 progress event, total committed:171201949, progress insts committed: 151628, IPC: 0.0151476
14045719261920: Event_283: system.switch_cpus1 progress event, total committed:171201422, progress insts committed: 151614, IPC: 0.0151462
14045719261920: Event_284: system.switch_cpus2 progress event, total committed:171201806, progress insts committed: 151612, IPC: 0.015146
14045719261920: Event_285: system.switch_cpus3 progress event, total committed:171201927, progress insts committed: 151619, IPC: 0.0151467
14049052595253: Event_285: system.switch_cpus3 progress event, total committed:171353906, progress insts committed: 151979, IPC: 0.0151827
14049052595253: Event_284: system.switch_cpus2 progress event, total committed:171353792, progress insts committed: 151986, IPC: 0.0151834
14049052595253: Event_283: system.switch_cpus1 progress event, total committed:171353390, progress insts committed: 151968, IPC: 0.0151816
14049052595253: Event_282: system.switch_cpus0 progress event, total committed:171353906, progress insts committed: 151957, IPC: 0.0151805
14052385928586: Event_282: system.switch_cpus0 progress event, total committed:172141515, progress insts committed: 787609, IPC: 0.0786821
14052385928586: Event_283: system.switch_cpus1 progress event, total committed:172106590, progress insts committed: 753200, IPC: 0.0752447
14052385928586: Event_284: system.switch_cpus2 progress event, total committed:172129946, progress insts committed: 776154, IPC: 0.0775378
14052385928586: Event_285: system.switch_cpus3 progress event, total committed:172145906, progress insts committed: 792000, IPC: 0.0791208
14055719261919: Event_285: system.switch_cpus3 progress event, total committed:173729784, progress insts committed: 1583878, IPC: 0.158229
14055719261919: Event_284: system.switch_cpus2 progress event, total committed:173711404, progress insts committed: 1581458, IPC: 0.157988
14055719261919: Event_283: system.switch_cpus1 progress event, total committed:173689559, progress insts committed: 1582969, IPC: 0.158139
14055719261919: Event_282: system.switch_cpus0 progress event, total committed:173722198, progress insts committed: 1580683, IPC: 00.15791
14059052595252: Event_282: system.switch_cpus0 progress event, total committed:175279918, progress insts committed: 1557720, IPC: 0.155616
14059052595252: Event_283: system.switch_cpus1 progress event, total committed:175249735, progress insts committed: 1560176, IPC: 0.155862
14059052595252: Event_284: system.switch_cpus2 progress event, total committed:175268252, progress insts committed: 1556848, IPC: 0.155529
14059052595252: Event_285: system.switch_cpus3 progress event, total committed:175288751, progress insts committed: 1558967, IPC: 0.155741
14062385928585: Event_285: system.switch_cpus3 progress event, total committed:176915810, progress insts committed: 1627059, IPC: 0.162543
14062385928585: Event_284: system.switch_cpus2 progress event, total committed:176896607, progress insts committed: 1628355, IPC: 0.162673
14062385928585: Event_283: system.switch_cpus1 progress event, total committed:176867603, progress insts committed: 1617868, IPC: 0.161625
14062385928585: Event_282: system.switch_cpus0 progress event, total committed:176907247, progress insts committed: 1627329, IPC: 00.16257
14065719261918: Event_282: system.switch_cpus0 progress event, total committed:178748879, progress insts committed: 1841632, IPC: 0.183979
14065719261918: Event_283: system.switch_cpus1 progress event, total committed:178719260, progress insts committed: 1851657, IPC: 0.184981
14065719261918: Event_284: system.switch_cpus2 progress event, total committed:178744586, progress insts committed: 1847979, IPC: 0.184613
14065719261918: Event_285: system.switch_cpus3 progress event, total committed:178760583, progress insts committed: 1844773, IPC: 0.184293
14069052595251: Event_285: system.switch_cpus3 progress event, total committed:180613805, progress insts committed: 1853222, IPC: 0.185137
14069052595251: Event_284: system.switch_cpus2 progress event, total committed:180590684, progress insts committed: 1846098, IPC: 0.184425
14069052595251: Event_283: system.switch_cpus1 progress event, total committed:180570354, progress insts committed: 1851094, IPC: 0.184924
14069052595251: Event_282: system.switch_cpus0 progress event, total committed:180599973, progress insts committed: 1851094, IPC: 0.184924
14072385928584: Event_282: system.switch_cpus0 progress event, total committed:182327398, progress insts committed: 1727425, IPC: 00.17257
14072385928584: Event_283: system.switch_cpus1 progress event, total committed:182301216, progress insts committed: 1730862, IPC: 0.172913
14072385928584: Event_284: system.switch_cpus2 progress event, total committed:182319455, progress insts committed: 1728771, IPC: 0.172704
14072385928584: Event_285: system.switch_cpus3 progress event, total committed:182347327, progress insts committed: 1733522, IPC: 0.173179
14075719261917: Event_285: system.switch_cpus3 progress event, total committed:184197758, progress insts committed: 1850431, IPC: 0.184858
14075719261917: Event_284: system.switch_cpus2 progress event, total committed:184175832, progress insts committed: 1856377, IPC: 0.185452
14075719261917: Event_283: system.switch_cpus1 progress event, total committed:184148700, progress insts committed: 1847484, IPC: 0.184564
14075719261917: Event_282: system.switch_cpus0 progress event, total committed:184186472, progress insts committed: 1859074, IPC: 0.185721
14079052595250: Event_282: system.switch_cpus0 progress event, total committed:186026508, progress insts committed: 1840036, IPC: 00.18382
14079052595250: Event_283: system.switch_cpus1 progress event, total committed:186005114, progress insts committed: 1856414, IPC: 0.185456
14079052595250: Event_284: system.switch_cpus2 progress event, total committed:186019326, progress insts committed: 1843494, IPC: 0.184165
14079052595250: Event_285: system.switch_cpus3 progress event, total committed:186051222, progress insts committed: 1853464, IPC: 0.185161
14082385928583: Event_285: system.switch_cpus3 progress event, total committed:187835156, progress insts committed: 1783934, IPC: 0.178215
14082385928583: Event_284: system.switch_cpus2 progress event, total committed:187807023, progress insts committed: 1787697, IPC: 0.178591
14082385928583: Event_283: system.switch_cpus1 progress event, total committed:187783144, progress insts committed: 1778030, IPC: 0.177625
14082385928583: Event_282: system.switch_cpus0 progress event, total committed:187807134, progress insts committed: 1780626, IPC: 0.177885
14085719261916: Event_282: system.switch_cpus0 progress event, total committed:189713521, progress insts committed: 1906387, IPC: 0.190448
14085719261916: Event_283: system.switch_cpus1 progress event, total committed:189687636, progress insts committed: 1904492, IPC: 0.190259
14085719261916: Event_284: system.switch_cpus2 progress event, total committed:189708677, progress insts committed: 1901654, IPC: 0.189975
14085719261916: Event_285: system.switch_cpus3 progress event, total committed:189739878, progress insts committed: 1904722, IPC: 0.190282
14089052595249: Event_285: system.switch_cpus3 progress event, total committed:191466702, progress insts committed: 1726824, IPC: 00.17251
14089052595249: Event_284: system.switch_cpus2 progress event, total committed:191427866, progress insts committed: 1719189, IPC: 0.171747
14089052595249: Event_283: system.switch_cpus1 progress event, total committed:191413920, progress insts committed: 1726284, IPC: 0.172456
14089052595249: Event_282: system.switch_cpus0 progress event, total committed:191436378, progress insts committed: 1722857, IPC: 0.172113
14092385928582: Event_282: system.switch_cpus0 progress event, total committed:193238920, progress insts committed: 1802542, IPC: 0.180074
14092385928582: Event_283: system.switch_cpus1 progress event, total committed:193205962, progress insts committed: 1792042, IPC: 0.179025
14092385928582: Event_284: system.switch_cpus2 progress event, total committed:193229615, progress insts committed: 1801749, IPC: 0.179995
14092385928582: Event_285: system.switch_cpus3 progress event, total committed:193261127, progress insts committed: 1794425, IPC: 0.179263
14095719261915: Event_285: system.switch_cpus3 progress event, total committed:195041870, progress insts committed: 1780743, IPC: 0.177896
14095719261915: Event_284: system.switch_cpus2 progress event, total committed:195005580, progress insts committed: 1775965, IPC: 0.177419
14095719261915: Event_283: system.switch_cpus1 progress event, total committed:194984058, progress insts committed: 1778096, IPC: 0.177632
14095719261915: Event_282: system.switch_cpus0 progress event, total committed:195016220, progress insts committed: 1777300, IPC: 0.177552
14099052595248: Event_282: system.switch_cpus0 progress event, total committed:196668547, progress insts committed: 1652327, IPC: 0.165067
14099052595248: Event_283: system.switch_cpus1 progress event, total committed:196648434, progress insts committed: 1664376, IPC: 0.166271
14099052595248: Event_284: system.switch_cpus2 progress event, total committed:196659678, progress insts committed: 1654098, IPC: 0.165244
14099052595248: Event_285: system.switch_cpus3 progress event, total committed:196708667, progress insts committed: 1666797, IPC: 0.166513
14102385928581: Event_285: system.switch_cpus3 progress event, total committed:198513483, progress insts committed: 1804816, IPC: 0.180301
14102385928581: Event_284: system.switch_cpus2 progress event, total committed:198468962, progress insts committed: 1809284, IPC: 0.180747
14102385928581: Event_283: system.switch_cpus1 progress event, total committed:198451119, progress insts committed: 1802685, IPC: 0.180088
14102385928581: Event_282: system.switch_cpus0 progress event, total committed:198484632, progress insts committed: 1816085, IPC: 0.181427
14105719261914: Event_282: system.switch_cpus0 progress event, total committed:200252923, progress insts committed: 1768291, IPC: 0.176652
14105719261914: Event_283: system.switch_cpus1 progress event, total committed:200215670, progress insts committed: 1764551, IPC: 0.176279
14105719261914: Event_284: system.switch_cpus2 progress event, total committed:200236950, progress insts committed: 1767988, IPC: 0.176622
14105719261914: Event_285: system.switch_cpus3 progress event, total committed:200280156, progress insts committed: 1766673, IPC: 0.176491
14109052595247: Event_285: system.switch_cpus3 progress event, total committed:201899844, progress insts committed: 1619688, IPC: 0.161807
14109052595247: Event_284: system.switch_cpus2 progress event, total committed:201863567, progress insts committed: 1626617, IPC: 0.162499
14109052595247: Event_283: system.switch_cpus1 progress event, total committed:201844354, progress insts committed: 1628684, IPC: 0.162706
14109052595247: Event_282: system.switch_cpus0 progress event, total committed:201877169, progress insts committed: 1624246, IPC: 0.162262
14112385928580: Event_282: system.switch_cpus0 progress event, total committed:203620310, progress insts committed: 1743141, IPC: 00.17414
14112385928580: Event_283: system.switch_cpus1 progress event, total committed:203588626, progress insts committed: 1744272, IPC: 0.174253
14112385928580: Event_284: system.switch_cpus2 progress event, total committed:203609906, progress insts committed: 1746339, IPC: 0.174459
14112385928580: Event_285: system.switch_cpus3 progress event, total committed:203645909, progress insts committed: 1746065, IPC: 0.174432
14115719261913: Event_285: system.switch_cpus3 progress event, total committed:205396810, progress insts committed: 1750901, IPC: 0.174915
14115719261913: Event_284: system.switch_cpus2 progress event, total committed:205353674, progress insts committed: 1743768, IPC: 0.174202
14115719261913: Event_283: system.switch_cpus1 progress event, total committed:205343732, progress insts committed: 1755106, IPC: 0.175335
14115719261913: Event_282: system.switch_cpus0 progress event, total committed:205367496, progress insts committed: 1747186, IPC: 0.174544
14119052595246: Event_282: system.switch_cpus0 progress event, total committed:206976326, progress insts committed: 1608830, IPC: 0.160722
14119052595246: Event_283: system.switch_cpus1 progress event, total committed:206948814, progress insts committed: 1605082, IPC: 0.160348
14119052595246: Event_284: system.switch_cpus2 progress event, total committed:206965306, progress insts committed: 1611632, IPC: 0.161002
14119052595246: Event_285: system.switch_cpus3 progress event, total committed:207002660, progress insts committed: 1605850, IPC: 0.160424
14122385928579: Event_285: system.switch_cpus3 progress event, total committed:208717334, progress insts committed: 1714674, IPC: 0.171296
14122385928579: Event_284: system.switch_cpus2 progress event, total committed:208676995, progress insts committed: 1711689, IPC: 0.170998
14122385928579: Event_283: system.switch_cpus1 progress event, total committed:208664262, progress insts committed: 1715448, IPC: 0.171373
14122385928579: Event_282: system.switch_cpus0 progress event, total committed:208699952, progress insts committed: 1723626, IPC: 00.17219
14125719261912: Event_282: system.switch_cpus0 progress event, total committed:210439988, progress insts committed: 1740036, IPC: 00.17383
14125719261912: Event_283: system.switch_cpus1 progress event, total committed:210413274, progress insts committed: 1749012, IPC: 0.174726
14125719261912: Event_284: system.switch_cpus2 progress event, total committed:210424041, progress insts committed: 1747046, IPC: 00.17453
14125719261912: Event_285: system.switch_cpus3 progress event, total committed:210466833, progress insts committed: 1749499, IPC: 0.174775
14129052595245: Event_285: system.switch_cpus3 progress event, total committed:212106782, progress insts committed: 1639949, IPC: 0.163831
14129052595245: Event_284: system.switch_cpus2 progress event, total committed:212055904, progress insts committed: 1631863, IPC: 0.163023
14129052595245: Event_283: system.switch_cpus1 progress event, total committed:212048717, progress insts committed: 1635443, IPC: 0.163381
14129052595245: Event_282: system.switch_cpus0 progress event, total committed:212084970, progress insts committed: 1644982, IPC: 0.164334
14132385928578: Event_282: system.switch_cpus0 progress event, total committed:213769448, progress insts committed: 1684478, IPC: 0.168279
14132385928578: Event_283: system.switch_cpus1 progress event, total committed:213727386, progress insts committed: 1678669, IPC: 0.167699
14132385928578: Event_284: system.switch_cpus2 progress event, total committed:213739127, progress insts committed: 1683223, IPC: 0.168154
14132385928578: Event_285: system.switch_cpus3 progress event, total committed:213782330, progress insts committed: 1675548, IPC: 0.167387
14135719261911: Event_285: system.switch_cpus3 progress event, total committed:215456216, progress insts committed: 1673886, IPC: 0.167221
14135719261911: Event_284: system.switch_cpus2 progress event, total committed:215413542, progress insts committed: 1674415, IPC: 0.167274
14135719261911: Event_283: system.switch_cpus1 progress event, total committed:215399784, progress insts committed: 1672398, IPC: 0.167073
14135719261911: Event_282: system.switch_cpus0 progress event, total committed:215442511, progress insts committed: 1673063, IPC: 0.167139
14139052595244: Event_282: system.switch_cpus0 progress event, total committed:216981270, progress insts committed: 1538759, IPC: 0.153722
14139052595244: Event_283: system.switch_cpus1 progress event, total committed:216948729, progress insts committed: 1548945, IPC: 00.15474
14139052595244: Event_284: system.switch_cpus2 progress event, total committed:216967034, progress insts committed: 1553492, IPC: 0.155194
14139052595244: Event_285: system.switch_cpus3 progress event, total committed:217008402, progress insts committed: 1552186, IPC: 0.155063
14142385928577: Event_285: system.switch_cpus3 progress event, total committed:218681504, progress insts committed: 1673102, IPC: 0.167143
14142385928577: Event_284: system.switch_cpus2 progress event, total committed:218637974, progress insts committed: 1670940, IPC: 0.166927
14142385928577: Event_283: system.switch_cpus1 progress event, total committed:218637693, progress insts committed: 1688964, IPC: 0.168728
14142385928577: Event_282: system.switch_cpus0 progress event, total committed:218663834, progress insts committed: 1682564, IPC: 0.168088
14145719261910: Event_282: system.switch_cpus0 progress event, total committed:220394523, progress insts committed: 1730689, IPC: 0.172896
14145719261910: Event_283: system.switch_cpus1 progress event, total committed:220354559, progress insts committed: 1716866, IPC: 0.171515
14145719261910: Event_284: system.switch_cpus2 progress event, total committed:220372409, progress insts committed: 1734435, IPC: 00.17327
14145719261910: Event_285: system.switch_cpus3 progress event, total committed:220421467, progress insts committed: 1739963, IPC: 0.173822
14149052595243: Event_285: system.switch_cpus3 progress event, total committed:222022077, progress insts committed: 1600610, IPC: 0.159901
14149052595243: Event_284: system.switch_cpus2 progress event, total committed:222021501, progress insts committed: 1649092, IPC: 0.164744
14149052595243: Event_283: system.switch_cpus1 progress event, total committed:222021330, progress insts committed: 1666771, IPC: 00.16651
14149052595243: Event_282: system.switch_cpus0 progress event, total committed:222021792, progress insts committed: 1627269, IPC: 0.162564
14152385928576: Event_282: system.switch_cpus0 progress event, total committed:223697985, progress insts committed: 1676193, IPC: 0.167452
14152385928576: Event_283: system.switch_cpus1 progress event, total committed:223654317, progress insts committed: 1632987, IPC: 0.163135
14152385928576: Event_284: system.switch_cpus2 progress event, total committed:223679587, progress insts committed: 1658086, IPC: 0.165643
14152385928576: Event_285: system.switch_cpus3 progress event, total committed:223698229, progress insts committed: 1676152, IPC: 0.167448
14155719261909: Event_285: system.switch_cpus3 progress event, total committed:225529612, progress insts committed: 1831383, IPC: 0.182955
14155719261909: Event_284: system.switch_cpus2 progress event, total committed:225479248, progress insts committed: 1799661, IPC: 0.179786
14155719261909: Event_283: system.switch_cpus1 progress event, total committed:225453954, progress insts committed: 1799637, IPC: 0.179784
14155719261909: Event_282: system.switch_cpus0 progress event, total committed:225501187, progress insts committed: 1803202, IPC: 00.18014
14159052595242: Event_282: system.switch_cpus0 progress event, total committed:227173361, progress insts committed: 1672174, IPC: 00.16705
14159052595242: Event_283: system.switch_cpus1 progress event, total committed:227127004, progress insts committed: 1673050, IPC: 0.167138
14159052595242: Event_284: system.switch_cpus2 progress event, total committed:227156264, progress insts committed: 1677016, IPC: 0.167534
14159052595242: Event_285: system.switch_cpus3 progress event, total committed:227207163, progress insts committed: 1677551, IPC: 0.167587
14162385928575: Event_285: system.switch_cpus3 progress event, total committed:228839241, progress insts committed: 1632078, IPC: 0.163045
14162385928575: Event_284: system.switch_cpus2 progress event, total committed:228831162, progress insts committed: 1674898, IPC: 0.167322
14162385928575: Event_283: system.switch_cpus1 progress event, total committed:228828986, progress insts committed: 1701982, IPC: 0.170028
14162385928575: Event_282: system.switch_cpus0 progress event, total committed:228831454, progress insts committed: 1658093, IPC: 0.165643
14165719261908: Event_282: system.switch_cpus0 progress event, total committed:230686635, progress insts committed: 1855181, IPC: 0.185333
14165719261908: Event_283: system.switch_cpus1 progress event, total committed:230622149, progress insts committed: 1793163, IPC: 0.179137
14165719261908: Event_284: system.switch_cpus2 progress event, total committed:230672157, progress insts committed: 1840995, IPC: 0.183915
14165719261908: Event_285: system.switch_cpus3 progress event, total committed:230717491, progress insts committed: 1878250, IPC: 0.187637
14169052595241: Event_285: system.switch_cpus3 progress event, total committed:232416433, progress insts committed: 1698942, IPC: 0.169724
14169052595241: Event_284: system.switch_cpus2 progress event, total committed:232376129, progress insts committed: 1703972, IPC: 0.170227
14169052595241: Event_283: system.switch_cpus1 progress event, total committed:232333213, progress insts committed: 1711064, IPC: 0.170935
14169052595241: Event_282: system.switch_cpus0 progress event, total committed:232401955, progress insts committed: 1715320, IPC: 00.17136
14172385928574: Event_282: system.switch_cpus0 progress event, total committed:233965289, progress insts committed: 1563334, IPC: 0.156177
14172385928574: Event_283: system.switch_cpus1 progress event, total committed:233939540, progress insts committed: 1606327, IPC: 0.160472
14172385928574: Event_284: system.switch_cpus2 progress event, total committed:233948878, progress insts committed: 1572749, IPC: 0.157118
14172385928574: Event_285: system.switch_cpus3 progress event, total committed:233981868, progress insts committed: 1565435, IPC: 0.156387
14175719261907: Event_285: system.switch_cpus3 progress event, total committed:235893490, progress insts committed: 1911622, IPC: 0.190971
14175719261907: Event_284: system.switch_cpus2 progress event, total committed:235828723, progress insts committed: 1879845, IPC: 0.187797
14175719261907: Event_283: system.switch_cpus1 progress event, total committed:235795374, progress insts committed: 1855834, IPC: 0.185398
14175719261907: Event_282: system.switch_cpus0 progress event, total committed:235871146, progress insts committed: 1905857, IPC: 0.190395
14179052595240: Event_282: system.switch_cpus0 progress event, total committed:237631513, progress insts committed: 1760367, IPC: 0.175861
14179052595240: Event_283: system.switch_cpus1 progress event, total committed:237548407, progress insts committed: 1753033, IPC: 0.175128
14179052595240: Event_284: system.switch_cpus2 progress event, total committed:237593382, progress insts committed: 1764659, IPC: 0.176289
14179052595240: Event_285: system.switch_cpus3 progress event, total committed:237653194, progress insts committed: 1759704, IPC: 0.175794
14182385928573: Event_285: system.switch_cpus3 progress event, total committed:239160318, progress insts committed: 1507124, IPC: 0.150562
14182385928573: Event_284: system.switch_cpus2 progress event, total committed:239090183, progress insts committed: 1496801, IPC: 00.14953
14182385928573: Event_283: system.switch_cpus1 progress event, total committed:239055199, progress insts committed: 1506792, IPC: 0.150529
14182385928573: Event_282: system.switch_cpus0 progress event, total committed:239132857, progress insts committed: 1501344, IPC: 0.149984
14185719261906: Event_282: system.switch_cpus0 progress event, total committed:240946179, progress insts committed: 1813322, IPC: 0.181151
14185719261906: Event_283: system.switch_cpus1 progress event, total committed:240867383, progress insts committed: 1812184, IPC: 0.181037
14185719261906: Event_284: system.switch_cpus2 progress event, total committed:240905633, progress insts committed: 1815450, IPC: 0.181363
14185719261906: Event_285: system.switch_cpus3 progress event, total committed:240981536, progress insts committed: 1821218, IPC: 00.18194
14189052595239: Event_285: system.switch_cpus3 progress event, total committed:242672327, progress insts committed: 1690791, IPC: 00.16891
14189052595239: Event_284: system.switch_cpus2 progress event, total committed:242596481, progress insts committed: 1690848, IPC: 0.168916
14189052595239: Event_283: system.switch_cpus1 progress event, total committed:242559368, progress insts committed: 1691985, IPC: 0.169029
14189052595239: Event_282: system.switch_cpus0 progress event, total committed:242632771, progress insts committed: 1686592, IPC: 0.168491
14192385928572: Event_282: system.switch_cpus0 progress event, total committed:244032904, progress insts committed: 1400133, IPC: 0.139873
14192385928572: Event_283: system.switch_cpus1 progress event, total committed:243954898, progress insts committed: 1395530, IPC: 0.139413
14192385928572: Event_284: system.switch_cpus2 progress event, total committed:243991881, progress insts committed: 1395400, IPC: 000.1394
14192385928572: Event_285: system.switch_cpus3 progress event, total committed:244077611, progress insts committed: 1405284, IPC: 0.140388
14195719261905: Event_285: system.switch_cpus3 progress event, total committed:245836052, progress insts committed: 1758441, IPC: 0.175668
14195719261905: Event_284: system.switch_cpus2 progress event, total committed:245757023, progress insts committed: 1765142, IPC: 0.176338
14195719261905: Event_283: system.switch_cpus1 progress event, total committed:245712935, progress insts committed: 1758037, IPC: 0.175628
14195719261905: Event_282: system.switch_cpus0 progress event, total committed:245802495, progress insts committed: 1769591, IPC: 0.176782
14199052595238: Event_282: system.switch_cpus0 progress event, total committed:247455911, progress insts committed: 1653416, IPC: 0.165176
14199052595238: Event_283: system.switch_cpus1 progress event, total committed:247405846, progress insts committed: 1692911, IPC: 0.169122
14199052595238: Event_284: system.switch_cpus2 progress event, total committed:247445390, progress insts committed: 1688367, IPC: 0.168668
14199052595238: Event_285: system.switch_cpus3 progress event, total committed:247489479, progress insts committed: 1653427, IPC: 0.165177
14202385928571: Event_285: system.switch_cpus3 progress event, total committed:248865341, progress insts committed: 1375862, IPC: 0.137449
14202385928571: Event_284: system.switch_cpus2 progress event, total committed:248777578, progress insts committed: 1332188, IPC: 0.133086
14202385928571: Event_283: system.switch_cpus1 progress event, total committed:248742107, progress insts committed: 1336261, IPC: 0.133492
14202385928571: Event_282: system.switch_cpus0 progress event, total committed:248836499, progress insts committed: 1380588, IPC: 0.137921
14205719261904: Event_282: system.switch_cpus0 progress event, total committed:250660181, progress insts committed: 1823682, IPC: 0.182186
14205719261904: Event_283: system.switch_cpus1 progress event, total committed:250563409, progress insts committed: 1821302, IPC: 0.181948
14205719261904: Event_284: system.switch_cpus2 progress event, total committed:250599167, progress insts committed: 1821589, IPC: 0.181977
14205719261904: Event_285: system.switch_cpus3 progress event, total committed:250689898, progress insts committed: 1824557, IPC: 0.182273
14209052595237: Event_285: system.switch_cpus3 progress event, total committed:252317506, progress insts committed: 1627608, IPC: 0.162598
14209052595237: Event_284: system.switch_cpus2 progress event, total committed:252314190, progress insts committed: 1715023, IPC: 0.171331
14209052595237: Event_283: system.switch_cpus1 progress event, total committed:252279888, progress insts committed: 1716479, IPC: 0.171476
14209052595237: Event_282: system.switch_cpus0 progress event, total committed:252314979, progress insts committed: 1654798, IPC: 0.165314
14212385928570: Event_282: system.switch_cpus0 progress event, total committed:253656873, progress insts committed: 1341894, IPC: 0.134055
14212385928570: Event_283: system.switch_cpus1 progress event, total committed:253553724, progress insts committed: 1273836, IPC: 0.127256
14212385928570: Event_284: system.switch_cpus2 progress event, total committed:253591784, progress insts committed: 1277594, IPC: 0.127632
14212385928570: Event_285: system.switch_cpus3 progress event, total committed:253697174, progress insts committed: 1379668, IPC: 0.137829
14215719261903: Event_285: system.switch_cpus3 progress event, total committed:255734048, progress insts committed: 2036874, IPC: 0.203484
14215719261903: Event_284: system.switch_cpus2 progress event, total committed:255629010, progress insts committed: 2037226, IPC: 0.203519
14215719261903: Event_283: system.switch_cpus1 progress event, total committed:255589383, progress insts committed: 2035659, IPC: 0.203362
14215719261903: Event_282: system.switch_cpus0 progress event, total committed:255695684, progress insts committed: 2038811, IPC: 0.203677
14219052595236: Event_282: system.switch_cpus0 progress event, total committed:257306908, progress insts committed: 1611224, IPC: 0.160961
14219052595236: Event_283: system.switch_cpus1 progress event, total committed:257270903, progress insts committed: 1681520, IPC: 0.167984
14219052595236: Event_284: system.switch_cpus2 progress event, total committed:257271330, progress insts committed: 1642320, IPC: 0.164068
14219052595236: Event_285: system.switch_cpus3 progress event, total committed:257307450, progress insts committed: 1573402, IPC: 0.157183
14222385928569: Event_285: system.switch_cpus3 progress event, total committed:258738767, progress insts committed: 1431317, IPC: 0.142989
14222385928569: Event_284: system.switch_cpus2 progress event, total committed:258622276, progress insts committed: 1350946, IPC: 00.13496
14222385928569: Event_283: system.switch_cpus1 progress event, total committed:258588933, progress insts committed: 1318030, IPC: 0.131671
14222385928569: Event_282: system.switch_cpus0 progress event, total committed:258704744, progress insts committed: 1397836, IPC: 0.139644
14225719261902: Event_282: system.switch_cpus0 progress event, total committed:260529745, progress insts committed: 1825001, IPC: 0.182318
14225719261902: Event_283: system.switch_cpus1 progress event, total committed:260417151, progress insts committed: 1828218, IPC: 0.182639
14225719261902: Event_284: system.switch_cpus2 progress event, total committed:260448363, progress insts committed: 1826087, IPC: 0.182426
14225719261902: Event_285: system.switch_cpus3 progress event, total committed:260565389, progress insts committed: 1826622, IPC: 00.18248
14229052595235: Event_285: system.switch_cpus3 progress event, total committed:262019715, progress insts committed: 1454326, IPC: 0.145287
14229052595235: Event_284: system.switch_cpus2 progress event, total committed:261984612, progress insts committed: 1536249, IPC: 0.153471
14229052595235: Event_283: system.switch_cpus1 progress event, total committed:261984169, progress insts committed: 1567018, IPC: 0.156545
14229052595235: Event_282: system.switch_cpus0 progress event, total committed:262016319, progress insts committed: 1486574, IPC: 0.148509
14232385928568: Event_282: system.switch_cpus0 progress event, total committed:263399220, progress insts committed: 1382901, IPC: 0.138152
14232385928568: Event_283: system.switch_cpus1 progress event, total committed:263271284, progress insts committed: 1287115, IPC: 0.128583
14232385928568: Event_284: system.switch_cpus2 progress event, total committed:263304060, progress insts committed: 1319448, IPC: 0.131813
14232385928568: Event_285: system.switch_cpus3 progress event, total committed:263421146, progress insts committed: 1401431, IPC: 0.140003
14235719261901: Event_285: system.switch_cpus3 progress event, total committed:265169336, progress insts committed: 1748190, IPC: 0.174644
14235719261901: Event_284: system.switch_cpus2 progress event, total committed:265044340, progress insts committed: 1740280, IPC: 0.173854
14235719261901: Event_283: system.switch_cpus1 progress event, total committed:265021330, progress insts committed: 1750046, IPC: 00.17483
14235719261901: Event_282: system.switch_cpus0 progress event, total committed:265135893, progress insts committed: 1736673, IPC: 0.173494
14239052595234: Event_282: system.switch_cpus0 progress event, total committed:266591519, progress insts committed: 1455626, IPC: 0.145417
14239052595234: Event_283: system.switch_cpus1 progress event, total committed:266590045, progress insts committed: 1568715, IPC: 0.156715
14239052595234: Event_284: system.switch_cpus2 progress event, total committed:266590493, progress insts committed: 1546153, IPC: 0.154461
14239052595234: Event_285: system.switch_cpus3 progress event, total committed:266595438, progress insts committed: 1426102, IPC: 0.142468
14242385928567: Event_285: system.switch_cpus3 progress event, total committed:267987017, progress insts committed: 1391579, IPC: 0.139019
14242385928567: Event_284: system.switch_cpus2 progress event, total committed:267872422, progress insts committed: 1281929, IPC: 0.128065
14242385928567: Event_283: system.switch_cpus1 progress event, total committed:267825189, progress insts committed: 1235144, IPC: 0.123391
14242385928567: Event_282: system.switch_cpus0 progress event, total committed:267971720, progress insts committed: 1380201, IPC: 0.137882
14245719261900: Event_282: system.switch_cpus0 progress event, total committed:269853828, progress insts committed: 1882108, IPC: 0.188023
14245719261900: Event_283: system.switch_cpus1 progress event, total committed:269716587, progress insts committed: 1891398, IPC: 0.188951
14245719261900: Event_284: system.switch_cpus2 progress event, total committed:269760325, progress insts committed: 1887903, IPC: 0.188602
14245719261900: Event_285: system.switch_cpus3 progress event, total committed:269874114, progress insts committed: 1887097, IPC: 0.188521
14249052595233: Event_285: system.switch_cpus3 progress event, total committed:271274658, progress insts committed: 1400544, IPC: 0.139914
14249052595233: Event_284: system.switch_cpus2 progress event, total committed:271267909, progress insts committed: 1507584, IPC: 0.150608
14249052595233: Event_283: system.switch_cpus1 progress event, total committed:271267405, progress insts committed: 1550818, IPC: 0.154927
14249052595233: Event_282: system.switch_cpus0 progress event, total committed:271268956, progress insts committed: 1415128, IPC: 0.141371
14252385928566: Event_282: system.switch_cpus0 progress event, total committed:272660909, progress insts committed: 1391953, IPC: 0.139056
14252385928566: Event_283: system.switch_cpus1 progress event, total committed:272500655, progress insts committed: 1233250, IPC: 0.123202
14252385928566: Event_284: system.switch_cpus2 progress event, total committed:272544680, progress insts committed: 1276771, IPC: 0.127549
14252385928566: Event_285: system.switch_cpus3 progress event, total committed:272672170, progress insts committed: 1397512, IPC: 0.139611
14255719261899: Event_285: system.switch_cpus3 progress event, total committed:274451862, progress insts committed: 1779692, IPC: 0.177791
14255719261899: Event_284: system.switch_cpus2 progress event, total committed:274322244, progress insts committed: 1777564, IPC: 0.177579
14255719261899: Event_283: system.switch_cpus1 progress event, total committed:274283307, progress insts committed: 1782652, IPC: 0.178087
14255719261899: Event_282: system.switch_cpus0 progress event, total committed:274442946, progress insts committed: 1782037, IPC: 0.178025
Exiting @ tick 14257283421357 because a thread reached the max instruction count
