
---------- Begin Simulation Statistics ----------
final_tick                               14247389486862                       # Number of ticks from beginning of simulation (restored from checkpoints and never reset)
host_inst_rate                                  92259                       # Simulator instruction rate (inst/s)
host_mem_usage                               17296284                       # Number of bytes of host memory used
host_op_rate                                   101550                       # Simulator op (including micro ops) rate (op/s)
host_seconds                                 10837.12                       # Real time elapsed on the host
host_tick_rate                               48752538                       # Simulator tick rate (ticks/s)
sim_freq                                 1000000000000                       # Frequency of simulated ticks
sim_insts                                   999826877                       # Number of instructions simulated
sim_ops                                    1100511690                       # Number of ops (including micro ops) simulated
sim_seconds                                  0.528337                       # Number of seconds simulated
sim_ticks                                528336949185                       # Number of ticks simulated
system.cpu0.committedInsts                         19                       # Number of instructions committed
system.cpu0.committedOps                           21                       # Number of ops (including micro ops) committed
system.cpu0.idle_fraction                           0                       # Percentage of idle cycles
system.cpu0.l2bus.snoop_filter.hit_multi_requests            0                       # Number of requests hitting in the snoop filter with multiple (>1) holders of the requested data.
system.cpu0.l2bus.snoop_filter.hit_multi_snoops            0                       # Number of snoops hitting in the snoop filter with multiple (>1) holders of the requested data.
system.cpu0.l2bus.snoop_filter.hit_single_requests     12663236                       # Number of requests hitting in the snoop filter with a single holder of the requested data.
system.cpu0.l2bus.snoop_filter.hit_single_snoops      4664627                       # Number of snoops hitting in the snoop filter with a single holder of the requested data.
system.cpu0.l2bus.snoop_filter.tot_requests     21975305                       # Total number of requests made to the snoop filter.
system.cpu0.l2bus.snoop_filter.tot_snoops      4664627                       # Total number of snoops made to the snoop filter.
system.cpu0.mmucache.mmubus.snoop_filter.hit_multi_requests            0                       # Number of requests hitting in the snoop filter with multiple (>1) holders of the requested data.
system.cpu0.mmucache.mmubus.snoop_filter.hit_multi_snoops            0                       # Number of snoops hitting in the snoop filter with multiple (>1) holders of the requested data.
system.cpu0.mmucache.mmubus.snoop_filter.hit_single_requests            0                       # Number of requests hitting in the snoop filter with a single holder of the requested data.
system.cpu0.mmucache.mmubus.snoop_filter.hit_single_snoops            0                       # Number of snoops hitting in the snoop filter with a single holder of the requested data.
system.cpu0.mmucache.mmubus.snoop_filter.tot_requests            0                       # Total number of requests made to the snoop filter.
system.cpu0.mmucache.mmubus.snoop_filter.tot_snoops            0                       # Total number of snoops made to the snoop filter.
system.cpu0.not_idle_fraction                       1                       # Percentage of non-idle cycles
system.cpu0.numCycles                              31                       # number of cpu cycles simulated
system.cpu0.numWorkItemsCompleted                   0                       # number of work items this cpu completed
system.cpu0.numWorkItemsStarted                     0                       # number of work items this cpu started
system.cpu0.num_busy_cycles                        31                       # Number of busy cycles
system.cpu0.num_conditional_control_insts            0                       # number of instructions that are conditional controls
system.cpu0.num_fp_alu_accesses                    20                       # Number of float alu accesses
system.cpu0.num_fp_insts                           20                       # number of float instructions
system.cpu0.num_fp_register_reads                  54                       # number of times the floating registers were read
system.cpu0.num_fp_register_writes                 20                       # number of times the floating registers were written
system.cpu0.num_func_calls                          0                       # number of times a function call or return occured
system.cpu0.num_idle_cycles                         0                       # Number of idle cycles
system.cpu0.num_int_alu_accesses                    2                       # Number of integer alu accesses
system.cpu0.num_int_insts                           2                       # number of integer instructions
system.cpu0.num_int_register_reads                  4                       # number of times the integer registers were read
system.cpu0.num_int_register_writes                 1                       # number of times the integer registers were written
system.cpu0.num_load_insts                          1                       # Number of load instructions
system.cpu0.num_mem_refs                            1                       # number of memory refs
system.cpu0.num_store_insts                         0                       # Number of store instructions
system.cpu0.num_vec_alu_accesses                    0                       # Number of vector alu accesses
system.cpu0.num_vec_insts                           0                       # number of vector instructions
system.cpu0.num_vec_register_reads                  0                       # number of times the vector registers were read
system.cpu0.num_vec_register_writes                 0                       # number of times the vector registers were written
system.cpu0.op_class::No_OpClass                    0      0.00%      0.00% # Class of executed instruction
system.cpu0.op_class::IntAlu                        4     19.05%     19.05% # Class of executed instruction
system.cpu0.op_class::IntMult                       0      0.00%     19.05% # Class of executed instruction
system.cpu0.op_class::IntDiv                        0      0.00%     19.05% # Class of executed instruction
system.cpu0.op_class::FloatAdd                      0      0.00%     19.05% # Class of executed instruction
system.cpu0.op_class::FloatCmp                      0      0.00%     19.05% # Class of executed instruction
system.cpu0.op_class::FloatCvt                      0      0.00%     19.05% # Class of executed instruction
system.cpu0.op_class::FloatMult                     0      0.00%     19.05% # Class of executed instruction
system.cpu0.op_class::FloatMultAcc                  0      0.00%     19.05% # Class of executed instruction
system.cpu0.op_class::FloatDiv                      0      0.00%     19.05% # Class of executed instruction
system.cpu0.op_class::FloatMisc                     0      0.00%     19.05% # Class of executed instruction
system.cpu0.op_class::FloatSqrt                     0      0.00%     19.05% # Class of executed instruction
system.cpu0.op_class::SimdAdd                       0      0.00%     19.05% # Class of executed instruction
system.cpu0.op_class::SimdAddAcc                    0      0.00%     19.05% # Class of executed instruction
system.cpu0.op_class::SimdAlu                       0      0.00%     19.05% # Class of executed instruction
system.cpu0.op_class::SimdCmp                       0      0.00%     19.05% # Class of executed instruction
system.cpu0.op_class::SimdCvt                       0      0.00%     19.05% # Class of executed instruction
system.cpu0.op_class::SimdMisc                      0      0.00%     19.05% # Class of executed instruction
system.cpu0.op_class::SimdMult                      0      0.00%     19.05% # Class of executed instruction
system.cpu0.op_class::SimdMultAcc                   0      0.00%     19.05% # Class of executed instruction
system.cpu0.op_class::SimdShift                     0      0.00%     19.05% # Class of executed instruction
system.cpu0.op_class::SimdShiftAcc                  0      0.00%     19.05% # Class of executed instruction
system.cpu0.op_class::SimdDiv                       0      0.00%     19.05% # Class of executed instruction
system.cpu0.op_class::SimdSqrt                      0      0.00%     19.05% # Class of executed instruction
system.cpu0.op_class::SimdFloatAdd                  7     33.33%     52.38% # Class of executed instruction
system.cpu0.op_class::SimdFloatAlu                  0      0.00%     52.38% # Class of executed instruction
system.cpu0.op_class::SimdFloatCmp                  0      0.00%     52.38% # Class of executed instruction
system.cpu0.op_class::SimdFloatCvt                  0      0.00%     52.38% # Class of executed instruction
system.cpu0.op_class::SimdFloatDiv                  0      0.00%     52.38% # Class of executed instruction
system.cpu0.op_class::SimdFloatMisc                 0      0.00%     52.38% # Class of executed instruction
system.cpu0.op_class::SimdFloatMult                 9     42.86%     95.24% # Class of executed instruction
system.cpu0.op_class::SimdFloatMultAcc              0      0.00%     95.24% # Class of executed instruction
system.cpu0.op_class::SimdFloatSqrt                 0      0.00%     95.24% # Class of executed instruction
system.cpu0.op_class::SimdReduceAdd                 0      0.00%     95.24% # Class of executed instruction
system.cpu0.op_class::SimdReduceAlu                 0      0.00%     95.24% # Class of executed instruction
system.cpu0.op_class::SimdReduceCmp                 0      0.00%     95.24% # Class of executed instruction
system.cpu0.op_class::SimdFloatReduceAdd            0      0.00%     95.24% # Class of executed instruction
system.cpu0.op_class::SimdFloatReduceCmp            0      0.00%     95.24% # Class of executed instruction
system.cpu0.op_class::SimdAes                       0      0.00%     95.24% # Class of executed instruction
system.cpu0.op_class::SimdAesMix                    0      0.00%     95.24% # Class of executed instruction
system.cpu0.op_class::SimdSha1Hash                  0      0.00%     95.24% # Class of executed instruction
system.cpu0.op_class::SimdSha1Hash2                 0      0.00%     95.24% # Class of executed instruction
system.cpu0.op_class::SimdSha256Hash                0      0.00%     95.24% # Class of executed instruction
system.cpu0.op_class::SimdSha256Hash2               0      0.00%     95.24% # Class of executed instruction
system.cpu0.op_class::SimdShaSigma2                 0      0.00%     95.24% # Class of executed instruction
system.cpu0.op_class::SimdShaSigma3                 0      0.00%     95.24% # Class of executed instruction
system.cpu0.op_class::SimdPredAlu                   0      0.00%     95.24% # Class of executed instruction
system.cpu0.op_class::MemRead                       0      0.00%     95.24% # Class of executed instruction
system.cpu0.op_class::MemWrite                      0      0.00%     95.24% # Class of executed instruction
system.cpu0.op_class::FloatMemRead                  1      4.76%    100.00% # Class of executed instruction
system.cpu0.op_class::FloatMemWrite                 0      0.00%    100.00% # Class of executed instruction
system.cpu0.op_class::IprAccess                     0      0.00%    100.00% # Class of executed instruction
system.cpu0.op_class::InstPrefetch                  0      0.00%    100.00% # Class of executed instruction
system.cpu0.op_class::total                        21                       # Class of executed instruction
system.cpu0.workload.numSyscalls                    0                       # Number of system calls
system.cpu1.committedInsts                         19                       # Number of instructions committed
system.cpu1.committedOps                           21                       # Number of ops (including micro ops) committed
system.cpu1.idle_fraction                           0                       # Percentage of idle cycles
system.cpu1.l2bus.snoop_filter.hit_multi_requests            0                       # Number of requests hitting in the snoop filter with multiple (>1) holders of the requested data.
system.cpu1.l2bus.snoop_filter.hit_multi_snoops            0                       # Number of snoops hitting in the snoop filter with multiple (>1) holders of the requested data.
system.cpu1.l2bus.snoop_filter.hit_single_requests     12662827                       # Number of requests hitting in the snoop filter with a single holder of the requested data.
system.cpu1.l2bus.snoop_filter.hit_single_snoops      4656479                       # Number of snoops hitting in the snoop filter with a single holder of the requested data.
system.cpu1.l2bus.snoop_filter.tot_requests     21974643                       # Total number of requests made to the snoop filter.
system.cpu1.l2bus.snoop_filter.tot_snoops      4656479                       # Total number of snoops made to the snoop filter.
system.cpu1.mmucache.mmubus.snoop_filter.hit_multi_requests            0                       # Number of requests hitting in the snoop filter with multiple (>1) holders of the requested data.
system.cpu1.mmucache.mmubus.snoop_filter.hit_multi_snoops            0                       # Number of snoops hitting in the snoop filter with multiple (>1) holders of the requested data.
system.cpu1.mmucache.mmubus.snoop_filter.hit_single_requests            0                       # Number of requests hitting in the snoop filter with a single holder of the requested data.
system.cpu1.mmucache.mmubus.snoop_filter.hit_single_snoops            0                       # Number of snoops hitting in the snoop filter with a single holder of the requested data.
system.cpu1.mmucache.mmubus.snoop_filter.tot_requests            0                       # Total number of requests made to the snoop filter.
system.cpu1.mmucache.mmubus.snoop_filter.tot_snoops            0                       # Total number of snoops made to the snoop filter.
system.cpu1.not_idle_fraction                       1                       # Percentage of non-idle cycles
system.cpu1.numCycles                              31                       # number of cpu cycles simulated
system.cpu1.numWorkItemsCompleted                   0                       # number of work items this cpu completed
system.cpu1.numWorkItemsStarted                     0                       # number of work items this cpu started
system.cpu1.num_busy_cycles                        31                       # Number of busy cycles
system.cpu1.num_conditional_control_insts            0                       # number of instructions that are conditional controls
system.cpu1.num_fp_alu_accesses                    20                       # Number of float alu accesses
system.cpu1.num_fp_insts                           20                       # number of float instructions
system.cpu1.num_fp_register_reads                  54                       # number of times the floating registers were read
system.cpu1.num_fp_register_writes                 20                       # number of times the floating registers were written
system.cpu1.num_func_calls                          0                       # number of times a function call or return occured
system.cpu1.num_idle_cycles                         0                       # Number of idle cycles
system.cpu1.num_int_alu_accesses                    2                       # Number of integer alu accesses
system.cpu1.num_int_insts                           2                       # number of integer instructions
system.cpu1.num_int_register_reads                  4                       # number of times the integer registers were read
system.cpu1.num_int_register_writes                 1                       # number of times the integer registers were written
system.cpu1.num_load_insts                          1                       # Number of load instructions
system.cpu1.num_mem_refs                            1                       # number of memory refs
system.cpu1.num_store_insts                         0                       # Number of store instructions
system.cpu1.num_vec_alu_accesses                    0                       # Number of vector alu accesses
system.cpu1.num_vec_insts                           0                       # number of vector instructions
system.cpu1.num_vec_register_reads                  0                       # number of times the vector registers were read
system.cpu1.num_vec_register_writes                 0                       # number of times the vector registers were written
system.cpu1.op_class::No_OpClass                    0      0.00%      0.00% # Class of executed instruction
system.cpu1.op_class::IntAlu                        4     19.05%     19.05% # Class of executed instruction
system.cpu1.op_class::IntMult                       0      0.00%     19.05% # Class of executed instruction
system.cpu1.op_class::IntDiv                        0      0.00%     19.05% # Class of executed instruction
system.cpu1.op_class::FloatAdd                      0      0.00%     19.05% # Class of executed instruction
system.cpu1.op_class::FloatCmp                      0      0.00%     19.05% # Class of executed instruction
system.cpu1.op_class::FloatCvt                      0      0.00%     19.05% # Class of executed instruction
system.cpu1.op_class::FloatMult                     0      0.00%     19.05% # Class of executed instruction
system.cpu1.op_class::FloatMultAcc                  0      0.00%     19.05% # Class of executed instruction
system.cpu1.op_class::FloatDiv                      0      0.00%     19.05% # Class of executed instruction
system.cpu1.op_class::FloatMisc                     0      0.00%     19.05% # Class of executed instruction
system.cpu1.op_class::FloatSqrt                     0      0.00%     19.05% # Class of executed instruction
system.cpu1.op_class::SimdAdd                       0      0.00%     19.05% # Class of executed instruction
system.cpu1.op_class::SimdAddAcc                    0      0.00%     19.05% # Class of executed instruction
system.cpu1.op_class::SimdAlu                       0      0.00%     19.05% # Class of executed instruction
system.cpu1.op_class::SimdCmp                       0      0.00%     19.05% # Class of executed instruction
system.cpu1.op_class::SimdCvt                       0      0.00%     19.05% # Class of executed instruction
system.cpu1.op_class::SimdMisc                      0      0.00%     19.05% # Class of executed instruction
system.cpu1.op_class::SimdMult                      0      0.00%     19.05% # Class of executed instruction
system.cpu1.op_class::SimdMultAcc                   0      0.00%     19.05% # Class of executed instruction
system.cpu1.op_class::SimdShift                     0      0.00%     19.05% # Class of executed instruction
system.cpu1.op_class::SimdShiftAcc                  0      0.00%     19.05% # Class of executed instruction
system.cpu1.op_class::SimdDiv                       0      0.00%     19.05% # Class of executed instruction
system.cpu1.op_class::SimdSqrt                      0      0.00%     19.05% # Class of executed instruction
system.cpu1.op_class::SimdFloatAdd                  7     33.33%     52.38% # Class of executed instruction
system.cpu1.op_class::SimdFloatAlu                  0      0.00%     52.38% # Class of executed instruction
system.cpu1.op_class::SimdFloatCmp                  0      0.00%     52.38% # Class of executed instruction
system.cpu1.op_class::SimdFloatCvt                  0      0.00%     52.38% # Class of executed instruction
system.cpu1.op_class::SimdFloatDiv                  0      0.00%     52.38% # Class of executed instruction
system.cpu1.op_class::SimdFloatMisc                 0      0.00%     52.38% # Class of executed instruction
system.cpu1.op_class::SimdFloatMult                 9     42.86%     95.24% # Class of executed instruction
system.cpu1.op_class::SimdFloatMultAcc              0      0.00%     95.24% # Class of executed instruction
system.cpu1.op_class::SimdFloatSqrt                 0      0.00%     95.24% # Class of executed instruction
system.cpu1.op_class::SimdReduceAdd                 0      0.00%     95.24% # Class of executed instruction
system.cpu1.op_class::SimdReduceAlu                 0      0.00%     95.24% # Class of executed instruction
system.cpu1.op_class::SimdReduceCmp                 0      0.00%     95.24% # Class of executed instruction
system.cpu1.op_class::SimdFloatReduceAdd            0      0.00%     95.24% # Class of executed instruction
system.cpu1.op_class::SimdFloatReduceCmp            0      0.00%     95.24% # Class of executed instruction
system.cpu1.op_class::SimdAes                       0      0.00%     95.24% # Class of executed instruction
system.cpu1.op_class::SimdAesMix                    0      0.00%     95.24% # Class of executed instruction
system.cpu1.op_class::SimdSha1Hash                  0      0.00%     95.24% # Class of executed instruction
system.cpu1.op_class::SimdSha1Hash2                 0      0.00%     95.24% # Class of executed instruction
system.cpu1.op_class::SimdSha256Hash                0      0.00%     95.24% # Class of executed instruction
system.cpu1.op_class::SimdSha256Hash2               0      0.00%     95.24% # Class of executed instruction
system.cpu1.op_class::SimdShaSigma2                 0      0.00%     95.24% # Class of executed instruction
system.cpu1.op_class::SimdShaSigma3                 0      0.00%     95.24% # Class of executed instruction
system.cpu1.op_class::SimdPredAlu                   0      0.00%     95.24% # Class of executed instruction
system.cpu1.op_class::MemRead                       0      0.00%     95.24% # Class of executed instruction
system.cpu1.op_class::MemWrite                      0      0.00%     95.24% # Class of executed instruction
system.cpu1.op_class::FloatMemRead                  1      4.76%    100.00% # Class of executed instruction
system.cpu1.op_class::FloatMemWrite                 0      0.00%    100.00% # Class of executed instruction
system.cpu1.op_class::IprAccess                     0      0.00%    100.00% # Class of executed instruction
system.cpu1.op_class::InstPrefetch                  0      0.00%    100.00% # Class of executed instruction
system.cpu1.op_class::total                        21                       # Class of executed instruction
system.cpu1.workload.numSyscalls                    0                       # Number of system calls
system.cpu2.committedInsts                         19                       # Number of instructions committed
system.cpu2.committedOps                           21                       # Number of ops (including micro ops) committed
system.cpu2.idle_fraction                           0                       # Percentage of idle cycles
system.cpu2.l2bus.snoop_filter.hit_multi_requests            0                       # Number of requests hitting in the snoop filter with multiple (>1) holders of the requested data.
system.cpu2.l2bus.snoop_filter.hit_multi_snoops            0                       # Number of snoops hitting in the snoop filter with multiple (>1) holders of the requested data.
system.cpu2.l2bus.snoop_filter.hit_single_requests     12659011                       # Number of requests hitting in the snoop filter with a single holder of the requested data.
system.cpu2.l2bus.snoop_filter.hit_single_snoops      4661350                       # Number of snoops hitting in the snoop filter with a single holder of the requested data.
system.cpu2.l2bus.snoop_filter.tot_requests     21968056                       # Total number of requests made to the snoop filter.
system.cpu2.l2bus.snoop_filter.tot_snoops      4661350                       # Total number of snoops made to the snoop filter.
system.cpu2.mmucache.mmubus.snoop_filter.hit_multi_requests            0                       # Number of requests hitting in the snoop filter with multiple (>1) holders of the requested data.
system.cpu2.mmucache.mmubus.snoop_filter.hit_multi_snoops            0                       # Number of snoops hitting in the snoop filter with multiple (>1) holders of the requested data.
system.cpu2.mmucache.mmubus.snoop_filter.hit_single_requests            0                       # Number of requests hitting in the snoop filter with a single holder of the requested data.
system.cpu2.mmucache.mmubus.snoop_filter.hit_single_snoops            0                       # Number of snoops hitting in the snoop filter with a single holder of the requested data.
system.cpu2.mmucache.mmubus.snoop_filter.tot_requests            0                       # Total number of requests made to the snoop filter.
system.cpu2.mmucache.mmubus.snoop_filter.tot_snoops            0                       # Total number of snoops made to the snoop filter.
system.cpu2.not_idle_fraction                       1                       # Percentage of non-idle cycles
system.cpu2.numCycles                              31                       # number of cpu cycles simulated
system.cpu2.numWorkItemsCompleted                   0                       # number of work items this cpu completed
system.cpu2.numWorkItemsStarted                     0                       # number of work items this cpu started
system.cpu2.num_busy_cycles                        31                       # Number of busy cycles
system.cpu2.num_conditional_control_insts            0                       # number of instructions that are conditional controls
system.cpu2.num_fp_alu_accesses                    20                       # Number of float alu accesses
system.cpu2.num_fp_insts                           20                       # number of float instructions
system.cpu2.num_fp_register_reads                  54                       # number of times the floating registers were read
system.cpu2.num_fp_register_writes                 20                       # number of times the floating registers were written
system.cpu2.num_func_calls                          0                       # number of times a function call or return occured
system.cpu2.num_idle_cycles                         0                       # Number of idle cycles
system.cpu2.num_int_alu_accesses                    2                       # Number of integer alu accesses
system.cpu2.num_int_insts                           2                       # number of integer instructions
system.cpu2.num_int_register_reads                  4                       # number of times the integer registers were read
system.cpu2.num_int_register_writes                 1                       # number of times the integer registers were written
system.cpu2.num_load_insts                          1                       # Number of load instructions
system.cpu2.num_mem_refs                            1                       # number of memory refs
system.cpu2.num_store_insts                         0                       # Number of store instructions
system.cpu2.num_vec_alu_accesses                    0                       # Number of vector alu accesses
system.cpu2.num_vec_insts                           0                       # number of vector instructions
system.cpu2.num_vec_register_reads                  0                       # number of times the vector registers were read
system.cpu2.num_vec_register_writes                 0                       # number of times the vector registers were written
system.cpu2.op_class::No_OpClass                    0      0.00%      0.00% # Class of executed instruction
system.cpu2.op_class::IntAlu                        4     19.05%     19.05% # Class of executed instruction
system.cpu2.op_class::IntMult                       0      0.00%     19.05% # Class of executed instruction
system.cpu2.op_class::IntDiv                        0      0.00%     19.05% # Class of executed instruction
system.cpu2.op_class::FloatAdd                      0      0.00%     19.05% # Class of executed instruction
system.cpu2.op_class::FloatCmp                      0      0.00%     19.05% # Class of executed instruction
system.cpu2.op_class::FloatCvt                      0      0.00%     19.05% # Class of executed instruction
system.cpu2.op_class::FloatMult                     0      0.00%     19.05% # Class of executed instruction
system.cpu2.op_class::FloatMultAcc                  0      0.00%     19.05% # Class of executed instruction
system.cpu2.op_class::FloatDiv                      0      0.00%     19.05% # Class of executed instruction
system.cpu2.op_class::FloatMisc                     0      0.00%     19.05% # Class of executed instruction
system.cpu2.op_class::FloatSqrt                     0      0.00%     19.05% # Class of executed instruction
system.cpu2.op_class::SimdAdd                       0      0.00%     19.05% # Class of executed instruction
system.cpu2.op_class::SimdAddAcc                    0      0.00%     19.05% # Class of executed instruction
system.cpu2.op_class::SimdAlu                       0      0.00%     19.05% # Class of executed instruction
system.cpu2.op_class::SimdCmp                       0      0.00%     19.05% # Class of executed instruction
system.cpu2.op_class::SimdCvt                       0      0.00%     19.05% # Class of executed instruction
system.cpu2.op_class::SimdMisc                      0      0.00%     19.05% # Class of executed instruction
system.cpu2.op_class::SimdMult                      0      0.00%     19.05% # Class of executed instruction
system.cpu2.op_class::SimdMultAcc                   0      0.00%     19.05% # Class of executed instruction
system.cpu2.op_class::SimdShift                     0      0.00%     19.05% # Class of executed instruction
system.cpu2.op_class::SimdShiftAcc                  0      0.00%     19.05% # Class of executed instruction
system.cpu2.op_class::SimdDiv                       0      0.00%     19.05% # Class of executed instruction
system.cpu2.op_class::SimdSqrt                      0      0.00%     19.05% # Class of executed instruction
system.cpu2.op_class::SimdFloatAdd                  7     33.33%     52.38% # Class of executed instruction
system.cpu2.op_class::SimdFloatAlu                  0      0.00%     52.38% # Class of executed instruction
system.cpu2.op_class::SimdFloatCmp                  0      0.00%     52.38% # Class of executed instruction
system.cpu2.op_class::SimdFloatCvt                  0      0.00%     52.38% # Class of executed instruction
system.cpu2.op_class::SimdFloatDiv                  0      0.00%     52.38% # Class of executed instruction
system.cpu2.op_class::SimdFloatMisc                 0      0.00%     52.38% # Class of executed instruction
system.cpu2.op_class::SimdFloatMult                 9     42.86%     95.24% # Class of executed instruction
system.cpu2.op_class::SimdFloatMultAcc              0      0.00%     95.24% # Class of executed instruction
system.cpu2.op_class::SimdFloatSqrt                 0      0.00%     95.24% # Class of executed instruction
system.cpu2.op_class::SimdReduceAdd                 0      0.00%     95.24% # Class of executed instruction
system.cpu2.op_class::SimdReduceAlu                 0      0.00%     95.24% # Class of executed instruction
system.cpu2.op_class::SimdReduceCmp                 0      0.00%     95.24% # Class of executed instruction
system.cpu2.op_class::SimdFloatReduceAdd            0      0.00%     95.24% # Class of executed instruction
system.cpu2.op_class::SimdFloatReduceCmp            0      0.00%     95.24% # Class of executed instruction
system.cpu2.op_class::SimdAes                       0      0.00%     95.24% # Class of executed instruction
system.cpu2.op_class::SimdAesMix                    0      0.00%     95.24% # Class of executed instruction
system.cpu2.op_class::SimdSha1Hash                  0      0.00%     95.24% # Class of executed instruction
system.cpu2.op_class::SimdSha1Hash2                 0      0.00%     95.24% # Class of executed instruction
system.cpu2.op_class::SimdSha256Hash                0      0.00%     95.24% # Class of executed instruction
system.cpu2.op_class::SimdSha256Hash2               0      0.00%     95.24% # Class of executed instruction
system.cpu2.op_class::SimdShaSigma2                 0      0.00%     95.24% # Class of executed instruction
system.cpu2.op_class::SimdShaSigma3                 0      0.00%     95.24% # Class of executed instruction
system.cpu2.op_class::SimdPredAlu                   0      0.00%     95.24% # Class of executed instruction
system.cpu2.op_class::MemRead                       0      0.00%     95.24% # Class of executed instruction
system.cpu2.op_class::MemWrite                      0      0.00%     95.24% # Class of executed instruction
system.cpu2.op_class::FloatMemRead                  1      4.76%    100.00% # Class of executed instruction
system.cpu2.op_class::FloatMemWrite                 0      0.00%    100.00% # Class of executed instruction
system.cpu2.op_class::IprAccess                     0      0.00%    100.00% # Class of executed instruction
system.cpu2.op_class::InstPrefetch                  0      0.00%    100.00% # Class of executed instruction
system.cpu2.op_class::total                        21                       # Class of executed instruction
system.cpu2.workload.numSyscalls                    0                       # Number of system calls
system.cpu3.committedInsts                         19                       # Number of instructions committed
system.cpu3.committedOps                           21                       # Number of ops (including micro ops) committed
system.cpu3.idle_fraction                           0                       # Percentage of idle cycles
system.cpu3.l2bus.snoop_filter.hit_multi_requests            0                       # Number of requests hitting in the snoop filter with multiple (>1) holders of the requested data.
system.cpu3.l2bus.snoop_filter.hit_multi_snoops            0                       # Number of snoops hitting in the snoop filter with multiple (>1) holders of the requested data.
system.cpu3.l2bus.snoop_filter.hit_single_requests     12658940                       # Number of requests hitting in the snoop filter with a single holder of the requested data.
system.cpu3.l2bus.snoop_filter.hit_single_snoops      4655440                       # Number of snoops hitting in the snoop filter with a single holder of the requested data.
system.cpu3.l2bus.snoop_filter.tot_requests     21967982                       # Total number of requests made to the snoop filter.
system.cpu3.l2bus.snoop_filter.tot_snoops      4655440                       # Total number of snoops made to the snoop filter.
system.cpu3.mmucache.mmubus.snoop_filter.hit_multi_requests            0                       # Number of requests hitting in the snoop filter with multiple (>1) holders of the requested data.
system.cpu3.mmucache.mmubus.snoop_filter.hit_multi_snoops            0                       # Number of snoops hitting in the snoop filter with multiple (>1) holders of the requested data.
system.cpu3.mmucache.mmubus.snoop_filter.hit_single_requests            0                       # Number of requests hitting in the snoop filter with a single holder of the requested data.
system.cpu3.mmucache.mmubus.snoop_filter.hit_single_snoops            0                       # Number of snoops hitting in the snoop filter with a single holder of the requested data.
system.cpu3.mmucache.mmubus.snoop_filter.tot_requests            0                       # Total number of requests made to the snoop filter.
system.cpu3.mmucache.mmubus.snoop_filter.tot_snoops            0                       # Total number of snoops made to the snoop filter.
system.cpu3.not_idle_fraction                       1                       # Percentage of non-idle cycles
system.cpu3.numCycles                              31                       # number of cpu cycles simulated
system.cpu3.numWorkItemsCompleted                   0                       # number of work items this cpu completed
system.cpu3.numWorkItemsStarted                     0                       # number of work items this cpu started
system.cpu3.num_busy_cycles                        31                       # Number of busy cycles
system.cpu3.num_conditional_control_insts            0                       # number of instructions that are conditional controls
system.cpu3.num_fp_alu_accesses                    20                       # Number of float alu accesses
system.cpu3.num_fp_insts                           20                       # number of float instructions
system.cpu3.num_fp_register_reads                  54                       # number of times the floating registers were read
system.cpu3.num_fp_register_writes                 20                       # number of times the floating registers were written
system.cpu3.num_func_calls                          0                       # number of times a function call or return occured
system.cpu3.num_idle_cycles                         0                       # Number of idle cycles
system.cpu3.num_int_alu_accesses                    2                       # Number of integer alu accesses
system.cpu3.num_int_insts                           2                       # number of integer instructions
system.cpu3.num_int_register_reads                  4                       # number of times the integer registers were read
system.cpu3.num_int_register_writes                 1                       # number of times the integer registers were written
system.cpu3.num_load_insts                          1                       # Number of load instructions
system.cpu3.num_mem_refs                            1                       # number of memory refs
system.cpu3.num_store_insts                         0                       # Number of store instructions
system.cpu3.num_vec_alu_accesses                    0                       # Number of vector alu accesses
system.cpu3.num_vec_insts                           0                       # number of vector instructions
system.cpu3.num_vec_register_reads                  0                       # number of times the vector registers were read
system.cpu3.num_vec_register_writes                 0                       # number of times the vector registers were written
system.cpu3.op_class::No_OpClass                    0      0.00%      0.00% # Class of executed instruction
system.cpu3.op_class::IntAlu                        4     19.05%     19.05% # Class of executed instruction
system.cpu3.op_class::IntMult                       0      0.00%     19.05% # Class of executed instruction
system.cpu3.op_class::IntDiv                        0      0.00%     19.05% # Class of executed instruction
system.cpu3.op_class::FloatAdd                      0      0.00%     19.05% # Class of executed instruction
system.cpu3.op_class::FloatCmp                      0      0.00%     19.05% # Class of executed instruction
system.cpu3.op_class::FloatCvt                      0      0.00%     19.05% # Class of executed instruction
system.cpu3.op_class::FloatMult                     0      0.00%     19.05% # Class of executed instruction
system.cpu3.op_class::FloatMultAcc                  0      0.00%     19.05% # Class of executed instruction
system.cpu3.op_class::FloatDiv                      0      0.00%     19.05% # Class of executed instruction
system.cpu3.op_class::FloatMisc                     0      0.00%     19.05% # Class of executed instruction
system.cpu3.op_class::FloatSqrt                     0      0.00%     19.05% # Class of executed instruction
system.cpu3.op_class::SimdAdd                       0      0.00%     19.05% # Class of executed instruction
system.cpu3.op_class::SimdAddAcc                    0      0.00%     19.05% # Class of executed instruction
system.cpu3.op_class::SimdAlu                       0      0.00%     19.05% # Class of executed instruction
system.cpu3.op_class::SimdCmp                       0      0.00%     19.05% # Class of executed instruction
system.cpu3.op_class::SimdCvt                       0      0.00%     19.05% # Class of executed instruction
system.cpu3.op_class::SimdMisc                      0      0.00%     19.05% # Class of executed instruction
system.cpu3.op_class::SimdMult                      0      0.00%     19.05% # Class of executed instruction
system.cpu3.op_class::SimdMultAcc                   0      0.00%     19.05% # Class of executed instruction
system.cpu3.op_class::SimdShift                     0      0.00%     19.05% # Class of executed instruction
system.cpu3.op_class::SimdShiftAcc                  0      0.00%     19.05% # Class of executed instruction
system.cpu3.op_class::SimdDiv                       0      0.00%     19.05% # Class of executed instruction
system.cpu3.op_class::SimdSqrt                      0      0.00%     19.05% # Class of executed instruction
system.cpu3.op_class::SimdFloatAdd                  7     33.33%     52.38% # Class of executed instruction
system.cpu3.op_class::SimdFloatAlu                  0      0.00%     52.38% # Class of executed instruction
system.cpu3.op_class::SimdFloatCmp                  0      0.00%     52.38% # Class of executed instruction
system.cpu3.op_class::SimdFloatCvt                  0      0.00%     52.38% # Class of executed instruction
system.cpu3.op_class::SimdFloatDiv                  0      0.00%     52.38% # Class of executed instruction
system.cpu3.op_class::SimdFloatMisc                 0      0.00%     52.38% # Class of executed instruction
system.cpu3.op_class::SimdFloatMult                 9     42.86%     95.24% # Class of executed instruction
system.cpu3.op_class::SimdFloatMultAcc              0      0.00%     95.24% # Class of executed instruction
system.cpu3.op_class::SimdFloatSqrt                 0      0.00%     95.24% # Class of executed instruction
system.cpu3.op_class::SimdReduceAdd                 0      0.00%     95.24% # Class of executed instruction
system.cpu3.op_class::SimdReduceAlu                 0      0.00%     95.24% # Class of executed instruction
system.cpu3.op_class::SimdReduceCmp                 0      0.00%     95.24% # Class of executed instruction
system.cpu3.op_class::SimdFloatReduceAdd            0      0.00%     95.24% # Class of executed instruction
system.cpu3.op_class::SimdFloatReduceCmp            0      0.00%     95.24% # Class of executed instruction
system.cpu3.op_class::SimdAes                       0      0.00%     95.24% # Class of executed instruction
system.cpu3.op_class::SimdAesMix                    0      0.00%     95.24% # Class of executed instruction
system.cpu3.op_class::SimdSha1Hash                  0      0.00%     95.24% # Class of executed instruction
system.cpu3.op_class::SimdSha1Hash2                 0      0.00%     95.24% # Class of executed instruction
system.cpu3.op_class::SimdSha256Hash                0      0.00%     95.24% # Class of executed instruction
system.cpu3.op_class::SimdSha256Hash2               0      0.00%     95.24% # Class of executed instruction
system.cpu3.op_class::SimdShaSigma2                 0      0.00%     95.24% # Class of executed instruction
system.cpu3.op_class::SimdShaSigma3                 0      0.00%     95.24% # Class of executed instruction
system.cpu3.op_class::SimdPredAlu                   0      0.00%     95.24% # Class of executed instruction
system.cpu3.op_class::MemRead                       0      0.00%     95.24% # Class of executed instruction
system.cpu3.op_class::MemWrite                      0      0.00%     95.24% # Class of executed instruction
system.cpu3.op_class::FloatMemRead                  1      4.76%    100.00% # Class of executed instruction
system.cpu3.op_class::FloatMemWrite                 0      0.00%    100.00% # Class of executed instruction
system.cpu3.op_class::IprAccess                     0      0.00%    100.00% # Class of executed instruction
system.cpu3.op_class::InstPrefetch                  0      0.00%    100.00% # Class of executed instruction
system.cpu3.op_class::total                        21                       # Class of executed instruction
system.cpu3.workload.numSyscalls                    0                       # Number of system calls
system.l3bus.snoop_filter.hit_multi_requests            0                       # Number of requests hitting in the snoop filter with multiple (>1) holders of the requested data.
system.l3bus.snoop_filter.hit_multi_snoops            0                       # Number of snoops hitting in the snoop filter with multiple (>1) holders of the requested data.
system.l3bus.snoop_filter.hit_single_requests     38604416                       # Number of requests hitting in the snoop filter with a single holder of the requested data.
system.l3bus.snoop_filter.hit_single_snoops            0                       # Number of snoops hitting in the snoop filter with a single holder of the requested data.
system.l3bus.snoop_filter.tot_requests       76867464                       # Total number of requests made to the snoop filter.
system.l3bus.snoop_filter.tot_snoops                0                       # Total number of snoops made to the snoop filter.
system.membus.snoop_filter.hit_multi_requests            0                       # Number of requests hitting in the snoop filter with multiple (>1) holders of the requested data.
system.membus.snoop_filter.hit_multi_snoops            0                       # Number of snoops hitting in the snoop filter with multiple (>1) holders of the requested data.
system.membus.snoop_filter.hit_single_requests     22523242                       # Number of requests hitting in the snoop filter with a single holder of the requested data.
system.membus.snoop_filter.hit_single_snoops            0                       # Number of snoops hitting in the snoop filter with a single holder of the requested data.
system.membus.snoop_filter.tot_requests      45094210                       # Total number of requests made to the snoop filter.
system.membus.snoop_filter.tot_snoops               0                       # Total number of snoops made to the snoop filter.
system.switch_cpus0.cc_regfile_reads          9300593                       # number of cc regfile reads
system.switch_cpus0.cc_regfile_writes         4425779                       # number of cc regfile writes
system.switch_cpus0.committedInsts          250000006                       # Number of Instructions Simulated
system.switch_cpus0.committedOps            275175508                       # Number of Ops (including micro ops) Simulated
system.switch_cpus0.cpi                      6.346390                       # CPI: Cycles Per Instruction
system.switch_cpus0.cpi_total                6.346390                       # CPI: Total CPI of All Threads
system.switch_cpus0.fp_regfile_reads        455082597                       # number of floating regfile reads
system.switch_cpus0.fp_regfile_writes       206106416                       # number of floating regfile writes
system.switch_cpus0.idleCycles                  14692                       # Total number of cycles that the CPU has spent unscheduled due to idling
system.switch_cpus0.iew.branchMispredicts         6484                       # Number of branch mispredicts detected at execute
system.switch_cpus0.iew.exec_branches         1661674                       # Number of branches executed
system.switch_cpus0.iew.exec_nop                    0                       # number of nop insts executed
system.switch_cpus0.iew.exec_rate            0.225693                       # Inst execution rate
system.switch_cpus0.iew.exec_refs           192003511                       # number of memory reference insts executed
system.switch_cpus0.iew.exec_stores          31310278                       # Number of stores executed
system.switch_cpus0.iew.exec_swp                    0                       # number of swp insts executed
system.switch_cpus0.iew.iewBlockCycles      281858776                       # Number of cycles IEW is blocking
system.switch_cpus0.iew.iewDispLoadInsts     77993309                       # Number of dispatched load instructions
system.switch_cpus0.iew.iewDispNonSpecInsts            0                       # Number of dispatched non-speculative instructions
system.switch_cpus0.iew.iewDispSquashedInsts          384                       # Number of squashed instructions skipped by dispatch
system.switch_cpus0.iew.iewDispStoreInsts     31366403                       # Number of dispatched store instructions
system.switch_cpus0.iew.iewDispatchedInsts    275463719                       # Number of instructions dispatched to IQ
system.switch_cpus0.iew.iewExecLoadInsts    160693233                       # Number of load instructions executed
system.switch_cpus0.iew.iewExecSquashedInsts         1654                       # Number of squashed instructions skipped in execute
system.switch_cpus0.iew.iewExecutedInsts    358083847                       # Number of executed instructions
system.switch_cpus0.iew.iewIQFullEvents       1816795                       # Number of times the IQ has become full, causing a stall
system.switch_cpus0.iew.iewIdleCycles               0                       # Number of cycles IEW is idle
system.switch_cpus0.iew.iewLSQFullEvents    467261654                       # Number of times the LSQ has become full, causing a stall
system.switch_cpus0.iew.iewSquashCycles          7496                       # Number of cycles IEW is squashing
system.switch_cpus0.iew.iewUnblockCycles    469584185                       # Number of cycles IEW is unblocking
system.switch_cpus0.iew.memOrderViolationEvents         2157                       # Number of memory order violations
system.switch_cpus0.iew.predictedNotTakenIncorrect         6090                       # Number of branches that were predicted not taken incorrectly
system.switch_cpus0.iew.predictedTakenIncorrect          394                       # Number of branches that were predicted taken incorrectly
system.switch_cpus0.iew.wb_consumers        378183889                       # num instructions consuming a value
system.switch_cpus0.iew.wb_count            275324593                       # cumulative count of insts written-back
system.switch_cpus0.iew.wb_fanout            0.532102                       # average fanout of values written-back
system.switch_cpus0.iew.wb_producers        201232238                       # num instructions producing a value
system.switch_cpus0.iew.wb_rate              0.173531                       # insts written-back per cycle
system.switch_cpus0.iew.wb_sent             275325575                       # cumulative count of insts sent to commit
system.switch_cpus0.int_regfile_reads       420055109                       # number of integer regfile reads
system.switch_cpus0.int_regfile_writes       36247300                       # number of integer regfile writes
system.switch_cpus0.ipc                      0.157570                       # IPC: Instructions Per Cycle
system.switch_cpus0.ipc_total                0.157570                       # IPC: Total IPC of All Threads
system.switch_cpus0.iq.FU_type_0::No_OpClass            0      0.00%      0.00% # Type of FU issued
system.switch_cpus0.iq.FU_type_0::IntAlu     40339898     11.27%     11.27% # Type of FU issued
system.switch_cpus0.iq.FU_type_0::IntMult            0      0.00%     11.27% # Type of FU issued
system.switch_cpus0.iq.FU_type_0::IntDiv            0      0.00%     11.27% # Type of FU issued
system.switch_cpus0.iq.FU_type_0::FloatAdd            0      0.00%     11.27% # Type of FU issued
system.switch_cpus0.iq.FU_type_0::FloatCmp            0      0.00%     11.27% # Type of FU issued
system.switch_cpus0.iq.FU_type_0::FloatCvt            0      0.00%     11.27% # Type of FU issued
system.switch_cpus0.iq.FU_type_0::FloatMult            0      0.00%     11.27% # Type of FU issued
system.switch_cpus0.iq.FU_type_0::FloatMultAcc            0      0.00%     11.27% # Type of FU issued
system.switch_cpus0.iq.FU_type_0::FloatDiv            0      0.00%     11.27% # Type of FU issued
system.switch_cpus0.iq.FU_type_0::FloatMisc            0      0.00%     11.27% # Type of FU issued
system.switch_cpus0.iq.FU_type_0::FloatSqrt            0      0.00%     11.27% # Type of FU issued
system.switch_cpus0.iq.FU_type_0::SimdAdd            0      0.00%     11.27% # Type of FU issued
system.switch_cpus0.iq.FU_type_0::SimdAddAcc            0      0.00%     11.27% # Type of FU issued
system.switch_cpus0.iq.FU_type_0::SimdAlu        37207      0.01%     11.28% # Type of FU issued
system.switch_cpus0.iq.FU_type_0::SimdCmp            0      0.00%     11.28% # Type of FU issued
system.switch_cpus0.iq.FU_type_0::SimdCvt            0      0.00%     11.28% # Type of FU issued
system.switch_cpus0.iq.FU_type_0::SimdMisc            0      0.00%     11.28% # Type of FU issued
system.switch_cpus0.iq.FU_type_0::SimdMult            0      0.00%     11.28% # Type of FU issued
system.switch_cpus0.iq.FU_type_0::SimdMultAcc            0      0.00%     11.28% # Type of FU issued
system.switch_cpus0.iq.FU_type_0::SimdShift            0      0.00%     11.28% # Type of FU issued
system.switch_cpus0.iq.FU_type_0::SimdShiftAcc            0      0.00%     11.28% # Type of FU issued
system.switch_cpus0.iq.FU_type_0::SimdDiv            0      0.00%     11.28% # Type of FU issued
system.switch_cpus0.iq.FU_type_0::SimdSqrt            0      0.00%     11.28% # Type of FU issued
system.switch_cpus0.iq.FU_type_0::SimdFloatAdd     77280935     21.58%     32.86% # Type of FU issued
system.switch_cpus0.iq.FU_type_0::SimdFloatAlu            0      0.00%     32.86% # Type of FU issued
system.switch_cpus0.iq.FU_type_0::SimdFloatCmp            0      0.00%     32.86% # Type of FU issued
system.switch_cpus0.iq.FU_type_0::SimdFloatCvt            0      0.00%     32.86% # Type of FU issued
system.switch_cpus0.iq.FU_type_0::SimdFloatDiv      1488387      0.42%     33.27% # Type of FU issued
system.switch_cpus0.iq.FU_type_0::SimdFloatMisc            0      0.00%     33.27% # Type of FU issued
system.switch_cpus0.iq.FU_type_0::SimdFloatMult     46934289     13.11%     46.38% # Type of FU issued
system.switch_cpus0.iq.FU_type_0::SimdFloatMultAcc            0      0.00%     46.38% # Type of FU issued
system.switch_cpus0.iq.FU_type_0::SimdFloatSqrt            0      0.00%     46.38% # Type of FU issued
system.switch_cpus0.iq.FU_type_0::SimdReduceAdd            0      0.00%     46.38% # Type of FU issued
system.switch_cpus0.iq.FU_type_0::SimdReduceAlu            0      0.00%     46.38% # Type of FU issued
system.switch_cpus0.iq.FU_type_0::SimdReduceCmp            0      0.00%     46.38% # Type of FU issued
system.switch_cpus0.iq.FU_type_0::SimdFloatReduceAdd            0      0.00%     46.38% # Type of FU issued
system.switch_cpus0.iq.FU_type_0::SimdFloatReduceCmp            0      0.00%     46.38% # Type of FU issued
system.switch_cpus0.iq.FU_type_0::SimdAes            0      0.00%     46.38% # Type of FU issued
system.switch_cpus0.iq.FU_type_0::SimdAesMix            0      0.00%     46.38% # Type of FU issued
system.switch_cpus0.iq.FU_type_0::SimdSha1Hash            0      0.00%     46.38% # Type of FU issued
system.switch_cpus0.iq.FU_type_0::SimdSha1Hash2            0      0.00%     46.38% # Type of FU issued
system.switch_cpus0.iq.FU_type_0::SimdSha256Hash            0      0.00%     46.38% # Type of FU issued
system.switch_cpus0.iq.FU_type_0::SimdSha256Hash2            0      0.00%     46.38% # Type of FU issued
system.switch_cpus0.iq.FU_type_0::SimdShaSigma2            0      0.00%     46.38% # Type of FU issued
system.switch_cpus0.iq.FU_type_0::SimdShaSigma3            0      0.00%     46.38% # Type of FU issued
system.switch_cpus0.iq.FU_type_0::SimdPredAlu            0      0.00%     46.38% # Type of FU issued
system.switch_cpus0.iq.FU_type_0::MemRead     53771557     15.02%     61.40% # Type of FU issued
system.switch_cpus0.iq.FU_type_0::MemWrite       129197      0.04%     61.43% # Type of FU issued
system.switch_cpus0.iq.FU_type_0::FloatMemRead    106922812     29.86%     91.29% # Type of FU issued
system.switch_cpus0.iq.FU_type_0::FloatMemWrite     31181219      8.71%    100.00% # Type of FU issued
system.switch_cpus0.iq.FU_type_0::IprAccess            0      0.00%    100.00% # Type of FU issued
system.switch_cpus0.iq.FU_type_0::InstPrefetch            0      0.00%    100.00% # Type of FU issued
system.switch_cpus0.iq.FU_type_0::total     358085501                       # Type of FU issued
system.switch_cpus0.iq.fp_alu_accesses      321374673                       # Number of floating point alu accesses
system.switch_cpus0.iq.fp_inst_queue_reads    608577980                       # Number of floating instruction queue reads
system.switch_cpus0.iq.fp_inst_queue_wakeup_accesses    237287000                       # Number of floating instruction queue wakeup accesses
system.switch_cpus0.iq.fp_inst_queue_writes    237590800                       # Number of floating instruction queue writes
system.switch_cpus0.iq.fu_busy_cnt           44502721                       # FU busy when requested
system.switch_cpus0.iq.fu_busy_rate          0.124280                       # FU busy rate (busy events/executed inst)
system.switch_cpus0.iq.fu_full::No_OpClass            0      0.00%      0.00% # attempts to use FU when none available
system.switch_cpus0.iq.fu_full::IntAlu         490731      1.10%      1.10% # attempts to use FU when none available
system.switch_cpus0.iq.fu_full::IntMult             0      0.00%      1.10% # attempts to use FU when none available
system.switch_cpus0.iq.fu_full::IntDiv              0      0.00%      1.10% # attempts to use FU when none available
system.switch_cpus0.iq.fu_full::FloatAdd            0      0.00%      1.10% # attempts to use FU when none available
system.switch_cpus0.iq.fu_full::FloatCmp            0      0.00%      1.10% # attempts to use FU when none available
system.switch_cpus0.iq.fu_full::FloatCvt            0      0.00%      1.10% # attempts to use FU when none available
system.switch_cpus0.iq.fu_full::FloatMult            0      0.00%      1.10% # attempts to use FU when none available
system.switch_cpus0.iq.fu_full::FloatMultAcc            0      0.00%      1.10% # attempts to use FU when none available
system.switch_cpus0.iq.fu_full::FloatDiv            0      0.00%      1.10% # attempts to use FU when none available
system.switch_cpus0.iq.fu_full::FloatMisc            0      0.00%      1.10% # attempts to use FU when none available
system.switch_cpus0.iq.fu_full::FloatSqrt            0      0.00%      1.10% # attempts to use FU when none available
system.switch_cpus0.iq.fu_full::SimdAdd             0      0.00%      1.10% # attempts to use FU when none available
system.switch_cpus0.iq.fu_full::SimdAddAcc            0      0.00%      1.10% # attempts to use FU when none available
system.switch_cpus0.iq.fu_full::SimdAlu             0      0.00%      1.10% # attempts to use FU when none available
system.switch_cpus0.iq.fu_full::SimdCmp             0      0.00%      1.10% # attempts to use FU when none available
system.switch_cpus0.iq.fu_full::SimdCvt             0      0.00%      1.10% # attempts to use FU when none available
system.switch_cpus0.iq.fu_full::SimdMisc            0      0.00%      1.10% # attempts to use FU when none available
system.switch_cpus0.iq.fu_full::SimdMult            0      0.00%      1.10% # attempts to use FU when none available
system.switch_cpus0.iq.fu_full::SimdMultAcc            0      0.00%      1.10% # attempts to use FU when none available
system.switch_cpus0.iq.fu_full::SimdShift            0      0.00%      1.10% # attempts to use FU when none available
system.switch_cpus0.iq.fu_full::SimdShiftAcc            0      0.00%      1.10% # attempts to use FU when none available
system.switch_cpus0.iq.fu_full::SimdDiv             0      0.00%      1.10% # attempts to use FU when none available
system.switch_cpus0.iq.fu_full::SimdSqrt            0      0.00%      1.10% # attempts to use FU when none available
system.switch_cpus0.iq.fu_full::SimdFloatAdd      5090174     11.44%     12.54% # attempts to use FU when none available
system.switch_cpus0.iq.fu_full::SimdFloatAlu            0      0.00%     12.54% # attempts to use FU when none available
system.switch_cpus0.iq.fu_full::SimdFloatCmp            0      0.00%     12.54% # attempts to use FU when none available
system.switch_cpus0.iq.fu_full::SimdFloatCvt            0      0.00%     12.54% # attempts to use FU when none available
system.switch_cpus0.iq.fu_full::SimdFloatDiv            0      0.00%     12.54% # attempts to use FU when none available
system.switch_cpus0.iq.fu_full::SimdFloatMisc            0      0.00%     12.54% # attempts to use FU when none available
system.switch_cpus0.iq.fu_full::SimdFloatMult      5214023     11.72%     24.26% # attempts to use FU when none available
system.switch_cpus0.iq.fu_full::SimdFloatMultAcc            0      0.00%     24.26% # attempts to use FU when none available
system.switch_cpus0.iq.fu_full::SimdFloatSqrt            0      0.00%     24.26% # attempts to use FU when none available
system.switch_cpus0.iq.fu_full::SimdReduceAdd            0      0.00%     24.26% # attempts to use FU when none available
system.switch_cpus0.iq.fu_full::SimdReduceAlu            0      0.00%     24.26% # attempts to use FU when none available
system.switch_cpus0.iq.fu_full::SimdReduceCmp            0      0.00%     24.26% # attempts to use FU when none available
system.switch_cpus0.iq.fu_full::SimdFloatReduceAdd            0      0.00%     24.26% # attempts to use FU when none available
system.switch_cpus0.iq.fu_full::SimdFloatReduceCmp            0      0.00%     24.26% # attempts to use FU when none available
system.switch_cpus0.iq.fu_full::SimdAes             0      0.00%     24.26% # attempts to use FU when none available
system.switch_cpus0.iq.fu_full::SimdAesMix            0      0.00%     24.26% # attempts to use FU when none available
system.switch_cpus0.iq.fu_full::SimdSha1Hash            0      0.00%     24.26% # attempts to use FU when none available
system.switch_cpus0.iq.fu_full::SimdSha1Hash2            0      0.00%     24.26% # attempts to use FU when none available
system.switch_cpus0.iq.fu_full::SimdSha256Hash            0      0.00%     24.26% # attempts to use FU when none available
system.switch_cpus0.iq.fu_full::SimdSha256Hash2            0      0.00%     24.26% # attempts to use FU when none available
system.switch_cpus0.iq.fu_full::SimdShaSigma2            0      0.00%     24.26% # attempts to use FU when none available
system.switch_cpus0.iq.fu_full::SimdShaSigma3            0      0.00%     24.26% # attempts to use FU when none available
system.switch_cpus0.iq.fu_full::SimdPredAlu            0      0.00%     24.26% # attempts to use FU when none available
system.switch_cpus0.iq.fu_full::MemRead      10305834     23.16%     47.41% # attempts to use FU when none available
system.switch_cpus0.iq.fu_full::MemWrite        25282      0.06%     47.47% # attempts to use FU when none available
system.switch_cpus0.iq.fu_full::FloatMemRead     21620506     48.58%     96.05% # attempts to use FU when none available
system.switch_cpus0.iq.fu_full::FloatMemWrite      1756171      3.95%    100.00% # attempts to use FU when none available
system.switch_cpus0.iq.fu_full::IprAccess            0      0.00%    100.00% # attempts to use FU when none available
system.switch_cpus0.iq.fu_full::InstPrefetch            0      0.00%    100.00% # attempts to use FU when none available
system.switch_cpus0.iq.int_alu_accesses      81213549                       # Number of integer alu accesses
system.switch_cpus0.iq.int_inst_queue_reads   1738678884                       # Number of integer instruction queue reads
system.switch_cpus0.iq.int_inst_queue_wakeup_accesses     38037593                       # Number of integer instruction queue wakeup accesses
system.switch_cpus0.iq.int_inst_queue_writes     38163247                       # Number of integer instruction queue writes
system.switch_cpus0.iq.iqInstsAdded         275463719                       # Number of instructions added to the IQ (excludes non-spec)
system.switch_cpus0.iq.iqInstsIssued        358085501                       # Number of instructions issued
system.switch_cpus0.iq.iqSquashedInstsExamined       288171                       # Number of squashed instructions iterated over during squash; mainly for profiling
system.switch_cpus0.iq.iqSquashedInstsIssued          419                       # Number of squashed instructions issued
system.switch_cpus0.iq.iqSquashedOperandsExamined       465913                       # Number of squashed operands that are examined and possibly removed from graph
system.switch_cpus0.iq.issued_per_cycle::samples   1586582722                       # Number of insts issued each cycle
system.switch_cpus0.iq.issued_per_cycle::mean     0.225696                       # Number of insts issued each cycle
system.switch_cpus0.iq.issued_per_cycle::stdev     1.047993                       # Number of insts issued each cycle
system.switch_cpus0.iq.issued_per_cycle::underflows            0      0.00%      0.00% # Number of insts issued each cycle
system.switch_cpus0.iq.issued_per_cycle::0   1496448573     94.32%     94.32% # Number of insts issued each cycle
system.switch_cpus0.iq.issued_per_cycle::1     14785142      0.93%     95.25% # Number of insts issued each cycle
system.switch_cpus0.iq.issued_per_cycle::2     11688854      0.74%     95.99% # Number of insts issued each cycle
system.switch_cpus0.iq.issued_per_cycle::3      6894764      0.43%     96.42% # Number of insts issued each cycle
system.switch_cpus0.iq.issued_per_cycle::4     27303886      1.72%     98.14% # Number of insts issued each cycle
system.switch_cpus0.iq.issued_per_cycle::5      7893458      0.50%     98.64% # Number of insts issued each cycle
system.switch_cpus0.iq.issued_per_cycle::6      7516070      0.47%     99.11% # Number of insts issued each cycle
system.switch_cpus0.iq.issued_per_cycle::7      6956695      0.44%     99.55% # Number of insts issued each cycle
system.switch_cpus0.iq.issued_per_cycle::8      7095280      0.45%    100.00% # Number of insts issued each cycle
system.switch_cpus0.iq.issued_per_cycle::overflows            0      0.00%    100.00% # Number of insts issued each cycle
system.switch_cpus0.iq.issued_per_cycle::min_value            0                       # Number of insts issued each cycle
system.switch_cpus0.iq.issued_per_cycle::max_value            8                       # Number of insts issued each cycle
system.switch_cpus0.iq.issued_per_cycle::total   1586582722                       # Number of insts issued each cycle
system.switch_cpus0.iq.rate                  0.225694                       # Inst issue rate
system.switch_cpus0.iq.vec_alu_accesses             0                       # Number of vector alu accesses
system.switch_cpus0.iq.vec_inst_queue_reads            0                       # Number of vector instruction queue reads
system.switch_cpus0.iq.vec_inst_queue_wakeup_accesses            0                       # Number of vector instruction queue wakeup accesses
system.switch_cpus0.iq.vec_inst_queue_writes            0                       # Number of vector instruction queue writes
system.switch_cpus0.memDep0.conflictingLoads      2723398                       # Number of conflicting loads.
system.switch_cpus0.memDep0.conflictingStores       993089                       # Number of conflicting stores.
system.switch_cpus0.memDep0.insertedLoads     77993309                       # Number of loads inserted to the mem dependence unit.
system.switch_cpus0.memDep0.insertedStores     31366403                       # Number of stores inserted to the mem dependence unit.
system.switch_cpus0.misc_regfile_reads      200640589                       # number of misc regfile reads
system.switch_cpus0.misc_regfile_writes             1                       # number of misc regfile writes
system.switch_cpus0.numCycles              1586597414                       # number of cpu cycles simulated
system.switch_cpus0.numWorkItemsCompleted            0                       # number of work items this cpu completed
system.switch_cpus0.numWorkItemsStarted             0                       # number of work items this cpu started
system.switch_cpus0.timesIdled                     45                       # Number of times that the entire CPU went into an idle state and unscheduled itself
system.switch_cpus1.cc_regfile_reads          9300445                       # number of cc regfile reads
system.switch_cpus1.cc_regfile_writes         4425801                       # number of cc regfile writes
system.switch_cpus1.committedInsts          249993877                       # Number of Instructions Simulated
system.switch_cpus1.committedOps            275168767                       # Number of Ops (including micro ops) Simulated
system.switch_cpus1.cpi                      6.346545                       # CPI: Cycles Per Instruction
system.switch_cpus1.cpi_total                6.346545                       # CPI: Total CPI of All Threads
system.switch_cpus1.fp_regfile_reads        455071333                       # number of floating regfile reads
system.switch_cpus1.fp_regfile_writes       206101236                       # number of floating regfile writes
system.switch_cpus1.idleCycles                  13373                       # Total number of cycles that the CPU has spent unscheduled due to idling
system.switch_cpus1.iew.branchMispredicts         6485                       # Number of branch mispredicts detected at execute
system.switch_cpus1.iew.exec_branches         1661636                       # Number of branches executed
system.switch_cpus1.iew.exec_nop                    0                       # number of nop insts executed
system.switch_cpus1.iew.exec_rate            0.225983                       # Inst execution rate
system.switch_cpus1.iew.exec_refs           192467721                       # number of memory reference insts executed
system.switch_cpus1.iew.exec_stores          31309502                       # Number of stores executed
system.switch_cpus1.iew.exec_swp                    0                       # number of swp insts executed
system.switch_cpus1.iew.iewBlockCycles      289452383                       # Number of cycles IEW is blocking
system.switch_cpus1.iew.iewDispLoadInsts     77991970                       # Number of dispatched load instructions
system.switch_cpus1.iew.iewDispNonSpecInsts            0                       # Number of dispatched non-speculative instructions
system.switch_cpus1.iew.iewDispSquashedInsts          238                       # Number of squashed instructions skipped by dispatch
system.switch_cpus1.iew.iewDispStoreInsts     31366314                       # Number of dispatched store instructions
system.switch_cpus1.iew.iewDispatchedInsts    275458422                       # Number of instructions dispatched to IQ
system.switch_cpus1.iew.iewExecLoadInsts    161158219                       # Number of load instructions executed
system.switch_cpus1.iew.iewExecSquashedInsts         1567                       # Number of squashed instructions skipped in execute
system.switch_cpus1.iew.iewExecutedInsts    358544091                       # Number of executed instructions
system.switch_cpus1.iew.iewIQFullEvents       1850734                       # Number of times the IQ has become full, causing a stall
system.switch_cpus1.iew.iewIdleCycles               0                       # Number of cycles IEW is idle
system.switch_cpus1.iew.iewLSQFullEvents    470499336                       # Number of times the LSQ has become full, causing a stall
system.switch_cpus1.iew.iewSquashCycles          7493                       # Number of cycles IEW is squashing
system.switch_cpus1.iew.iewUnblockCycles    472854287                       # Number of cycles IEW is unblocking
system.switch_cpus1.iew.memOrderViolationEvents         2159                       # Number of memory order violations
system.switch_cpus1.iew.predictedNotTakenIncorrect         6091                       # Number of branches that were predicted not taken incorrectly
system.switch_cpus1.iew.predictedTakenIncorrect          394                       # Number of branches that were predicted taken incorrectly
system.switch_cpus1.iew.wb_consumers        378234272                       # num instructions consuming a value
system.switch_cpus1.iew.wb_count            275318485                       # cumulative count of insts written-back
system.switch_cpus1.iew.wb_fanout            0.532066                       # average fanout of values written-back
system.switch_cpus1.iew.wb_producers        201245463                       # num instructions producing a value
system.switch_cpus1.iew.wb_rate              0.173528                       # insts written-back per cycle
system.switch_cpus1.iew.wb_sent             275319411                       # cumulative count of insts sent to commit
system.switch_cpus1.int_regfile_reads       420983375                       # number of integer regfile reads
system.switch_cpus1.int_regfile_writes       36247130                       # number of integer regfile writes
system.switch_cpus1.ipc                      0.157566                       # IPC: Instructions Per Cycle
system.switch_cpus1.ipc_total                0.157566                       # IPC: Total IPC of All Threads
system.switch_cpus1.iq.FU_type_0::No_OpClass            0      0.00%      0.00% # Type of FU issued
system.switch_cpus1.iq.FU_type_0::IntAlu     40339050     11.25%     11.25% # Type of FU issued
system.switch_cpus1.iq.FU_type_0::IntMult            0      0.00%     11.25% # Type of FU issued
system.switch_cpus1.iq.FU_type_0::IntDiv            0      0.00%     11.25% # Type of FU issued
system.switch_cpus1.iq.FU_type_0::FloatAdd            0      0.00%     11.25% # Type of FU issued
system.switch_cpus1.iq.FU_type_0::FloatCmp            0      0.00%     11.25% # Type of FU issued
system.switch_cpus1.iq.FU_type_0::FloatCvt            0      0.00%     11.25% # Type of FU issued
system.switch_cpus1.iq.FU_type_0::FloatMult            0      0.00%     11.25% # Type of FU issued
system.switch_cpus1.iq.FU_type_0::FloatMultAcc            0      0.00%     11.25% # Type of FU issued
system.switch_cpus1.iq.FU_type_0::FloatDiv            0      0.00%     11.25% # Type of FU issued
system.switch_cpus1.iq.FU_type_0::FloatMisc            0      0.00%     11.25% # Type of FU issued
system.switch_cpus1.iq.FU_type_0::FloatSqrt            0      0.00%     11.25% # Type of FU issued
system.switch_cpus1.iq.FU_type_0::SimdAdd            0      0.00%     11.25% # Type of FU issued
system.switch_cpus1.iq.FU_type_0::SimdAddAcc            0      0.00%     11.25% # Type of FU issued
system.switch_cpus1.iq.FU_type_0::SimdAlu        37200      0.01%     11.26% # Type of FU issued
system.switch_cpus1.iq.FU_type_0::SimdCmp            0      0.00%     11.26% # Type of FU issued
system.switch_cpus1.iq.FU_type_0::SimdCvt            0      0.00%     11.26% # Type of FU issued
system.switch_cpus1.iq.FU_type_0::SimdMisc            0      0.00%     11.26% # Type of FU issued
system.switch_cpus1.iq.FU_type_0::SimdMult            0      0.00%     11.26% # Type of FU issued
system.switch_cpus1.iq.FU_type_0::SimdMultAcc            0      0.00%     11.26% # Type of FU issued
system.switch_cpus1.iq.FU_type_0::SimdShift            0      0.00%     11.26% # Type of FU issued
system.switch_cpus1.iq.FU_type_0::SimdShiftAcc            0      0.00%     11.26% # Type of FU issued
system.switch_cpus1.iq.FU_type_0::SimdDiv            0      0.00%     11.26% # Type of FU issued
system.switch_cpus1.iq.FU_type_0::SimdSqrt            0      0.00%     11.26% # Type of FU issued
system.switch_cpus1.iq.FU_type_0::SimdFloatAdd     77279061     21.55%     32.81% # Type of FU issued
system.switch_cpus1.iq.FU_type_0::SimdFloatAlu            0      0.00%     32.81% # Type of FU issued
system.switch_cpus1.iq.FU_type_0::SimdFloatCmp            0      0.00%     32.81% # Type of FU issued
system.switch_cpus1.iq.FU_type_0::SimdFloatCvt            0      0.00%     32.81% # Type of FU issued
system.switch_cpus1.iq.FU_type_0::SimdFloatDiv      1488348      0.42%     33.23% # Type of FU issued
system.switch_cpus1.iq.FU_type_0::SimdFloatMisc            0      0.00%     33.23% # Type of FU issued
system.switch_cpus1.iq.FU_type_0::SimdFloatMult     46933109     13.09%     46.32% # Type of FU issued
system.switch_cpus1.iq.FU_type_0::SimdFloatMultAcc            0      0.00%     46.32% # Type of FU issued
system.switch_cpus1.iq.FU_type_0::SimdFloatSqrt            0      0.00%     46.32% # Type of FU issued
system.switch_cpus1.iq.FU_type_0::SimdReduceAdd            0      0.00%     46.32% # Type of FU issued
system.switch_cpus1.iq.FU_type_0::SimdReduceAlu            0      0.00%     46.32% # Type of FU issued
system.switch_cpus1.iq.FU_type_0::SimdReduceCmp            0      0.00%     46.32% # Type of FU issued
system.switch_cpus1.iq.FU_type_0::SimdFloatReduceAdd            0      0.00%     46.32% # Type of FU issued
system.switch_cpus1.iq.FU_type_0::SimdFloatReduceCmp            0      0.00%     46.32% # Type of FU issued
system.switch_cpus1.iq.FU_type_0::SimdAes            0      0.00%     46.32% # Type of FU issued
system.switch_cpus1.iq.FU_type_0::SimdAesMix            0      0.00%     46.32% # Type of FU issued
system.switch_cpus1.iq.FU_type_0::SimdSha1Hash            0      0.00%     46.32% # Type of FU issued
system.switch_cpus1.iq.FU_type_0::SimdSha1Hash2            0      0.00%     46.32% # Type of FU issued
system.switch_cpus1.iq.FU_type_0::SimdSha256Hash            0      0.00%     46.32% # Type of FU issued
system.switch_cpus1.iq.FU_type_0::SimdSha256Hash2            0      0.00%     46.32% # Type of FU issued
system.switch_cpus1.iq.FU_type_0::SimdShaSigma2            0      0.00%     46.32% # Type of FU issued
system.switch_cpus1.iq.FU_type_0::SimdShaSigma3            0      0.00%     46.32% # Type of FU issued
system.switch_cpus1.iq.FU_type_0::SimdPredAlu            0      0.00%     46.32% # Type of FU issued
system.switch_cpus1.iq.FU_type_0::MemRead     53854710     15.02%     61.34% # Type of FU issued
system.switch_cpus1.iq.FU_type_0::MemWrite       129186      0.04%     61.38% # Type of FU issued
system.switch_cpus1.iq.FU_type_0::FloatMemRead    107304542     29.93%     91.30% # Type of FU issued
system.switch_cpus1.iq.FU_type_0::FloatMemWrite     31180452      8.70%    100.00% # Type of FU issued
system.switch_cpus1.iq.FU_type_0::IprAccess            0      0.00%    100.00% # Type of FU issued
system.switch_cpus1.iq.FU_type_0::InstPrefetch            0      0.00%    100.00% # Type of FU issued
system.switch_cpus1.iq.FU_type_0::total     358545658                       # Type of FU issued
[...]
system.switch_cpus3.commit.numCommittedDist::mean     0.173386                       # Number of insts commited each cycle
system.switch_cpus3.commit.numCommittedDist::stdev     1.050048                       # Number of insts commited each cycle
system.switch_cpus3.commit.numCommittedDist::underflows            0      0.00%      0.00% # Number of insts commited each cycle
system.switch_cpus3.commit.numCommittedDist::0   1523762963     96.04%     96.04% # Number of insts commited each cycle
system.switch_cpus3.commit.numCommittedDist::1     18706422      1.18%     97.22% # Number of insts commited each cycle
system.switch_cpus3.commit.numCommittedDist::2      8001081      0.50%     97.73% # Number of insts commited each cycle
system.switch_cpus3.commit.numCommittedDist::3      5612816      0.35%     98.08% # Number of insts commited each cycle
system.switch_cpus3.commit.numCommittedDist::4      2999680      0.19%     98.27% # Number of insts commited each cycle
system.switch_cpus3.commit.numCommittedDist::5      1683148      0.11%     98.38% # Number of insts commited each cycle
system.switch_cpus3.commit.numCommittedDist::6      1144310      0.07%     98.45% # Number of insts commited each cycle
system.switch_cpus3.commit.numCommittedDist::7       789838      0.05%     98.50% # Number of insts commited each cycle
system.switch_cpus3.commit.numCommittedDist::8     23840947      1.50%    100.00% # Number of insts commited each cycle
system.switch_cpus3.commit.numCommittedDist::overflows            0      0.00%    100.00% # Number of insts commited each cycle
system.switch_cpus3.commit.numCommittedDist::min_value            0                       # Number of insts commited each cycle
system.switch_cpus3.commit.numCommittedDist::max_value            8                       # Number of insts commited each cycle
system.switch_cpus3.commit.numCommittedDist::total   1586541205                       # Number of insts commited each cycle
system.switch_cpus3.commit.instsCommitted    249916575                       # Number of instructions committed
system.switch_cpus3.commit.opsCommitted     275083794                       # Number of ops (including micro ops) committed
system.switch_cpus3.commit.memRefs          109083548                       # Number of memory references committed
system.switch_cpus3.commit.loads             77791389                       # Number of loads committed
system.switch_cpus3.commit.amos                     0                       # Number of atomic instructions committed
system.switch_cpus3.commit.membars                  0                       # Number of memory barriers committed
system.switch_cpus3.commit.branches           1660891                       # Number of branches committed
system.switch_cpus3.commit.vector                   0                       # Number of committed Vector instructions.
system.switch_cpus3.commit.floating         237176557                       # Number of committed floating point instructions.
system.switch_cpus3.commit.integer          126045103                       # Number of committed integer instructions.
system.switch_cpus3.commit.functionCalls            2                       # Number of function calls committed.
system.switch_cpus3.commit.committedInstType_0::No_OpClass            0      0.00%      0.00% # Class of committed instruction
system.switch_cpus3.commit.committedInstType_0::IntAlu     40310109     14.65%     14.65% # Class of committed instruction
system.switch_cpus3.commit.committedInstType_0::IntMult            0      0.00%     14.65% # Class of committed instruction
system.switch_cpus3.commit.committedInstType_0::IntDiv            0      0.00%     14.65% # Class of committed instruction
system.switch_cpus3.commit.committedInstType_0::FloatAdd            0      0.00%     14.65% # Class of committed instruction
system.switch_cpus3.commit.committedInstType_0::FloatCmp            0      0.00%     14.65% # Class of committed instruction
system.switch_cpus3.commit.committedInstType_0::FloatCvt            0      0.00%     14.65% # Class of committed instruction
system.switch_cpus3.commit.committedInstType_0::FloatMult            0      0.00%     14.65% # Class of committed instruction
system.switch_cpus3.commit.committedInstType_0::FloatMultAcc            0      0.00%     14.65% # Class of committed instruction
system.switch_cpus3.commit.committedInstType_0::FloatDiv            0      0.00%     14.65% # Class of committed instruction
system.switch_cpus3.commit.committedInstType_0::FloatMisc            0      0.00%     14.65% # Class of committed instruction
system.switch_cpus3.commit.committedInstType_0::FloatSqrt            0      0.00%     14.65% # Class of committed instruction
system.switch_cpus3.commit.committedInstType_0::SimdAdd            0      0.00%     14.65% # Class of committed instruction
system.switch_cpus3.commit.committedInstType_0::SimdAddAcc            0      0.00%     14.65% # Class of committed instruction
system.switch_cpus3.commit.committedInstType_0::SimdAlu        36864      0.01%     14.67% # Class of committed instruction
system.switch_cpus3.commit.committedInstType_0::SimdCmp            0      0.00%     14.67% # Class of committed instruction
system.switch_cpus3.commit.committedInstType_0::SimdCvt            0      0.00%     14.67% # Class of committed instruction
system.switch_cpus3.commit.committedInstType_0::SimdMisc            0      0.00%     14.67% # Class of committed instruction
system.switch_cpus3.commit.committedInstType_0::SimdMult            0      0.00%     14.67% # Class of committed instruction
system.switch_cpus3.commit.committedInstType_0::SimdMultAcc            0      0.00%     14.67% # Class of committed instruction
system.switch_cpus3.commit.committedInstType_0::SimdShift            0      0.00%     14.67% # Class of committed instruction
system.switch_cpus3.commit.committedInstType_0::SimdShiftAcc            0      0.00%     14.67% # Class of committed instruction
system.switch_cpus3.commit.committedInstType_0::SimdDiv            0      0.00%     14.67% # Class of committed instruction
system.switch_cpus3.commit.committedInstType_0::SimdSqrt            0      0.00%     14.67% # Class of committed instruction
system.switch_cpus3.commit.committedInstType_0::SimdFloatAdd     77247109     28.08%     42.75% # Class of committed instruction
system.switch_cpus3.commit.committedInstType_0::SimdFloatAlu            0      0.00%     42.75% # Class of committed instruction
system.switch_cpus3.commit.committedInstType_0::SimdFloatCmp            0      0.00%     42.75% # Class of committed instruction
system.switch_cpus3.commit.committedInstType_0::SimdFloatCvt            0      0.00%     42.75% # Class of committed instruction
system.switch_cpus3.commit.committedInstType_0::SimdFloatDiv      1487871      0.54%     43.29% # Class of committed instruction
system.switch_cpus3.commit.committedInstType_0::SimdFloatMisc            0      0.00%     43.29% # Class of committed instruction
system.switch_cpus3.commit.committedInstType_0::SimdFloatMult     46918293     17.06%     60.35% # Class of committed instruction
system.switch_cpus3.commit.committedInstType_0::SimdFloatMultAcc            0      0.00%     60.35% # Class of committed instruction
system.switch_cpus3.commit.committedInstType_0::SimdFloatSqrt            0      0.00%     60.35% # Class of committed instruction
system.switch_cpus3.commit.committedInstType_0::SimdReduceAdd            0      0.00%     60.35% # Class of committed instruction
system.switch_cpus3.commit.committedInstType_0::SimdReduceAlu            0      0.00%     60.35% # Class of committed instruction
system.switch_cpus3.commit.committedInstType_0::SimdReduceCmp            0      0.00%     60.35% # Class of committed instruction
system.switch_cpus3.commit.committedInstType_0::SimdFloatReduceAdd            0      0.00%     60.35% # Class of committed instruction
system.switch_cpus3.commit.committedInstType_0::SimdFloatReduceCmp            0      0.00%     60.35% # Class of committed instruction
system.switch_cpus3.commit.committedInstType_0::SimdAes            0      0.00%     60.35% # Class of committed instruction
system.switch_cpus3.commit.committedInstType_0::SimdAesMix            0      0.00%     60.35% # Class of committed instruction
system.switch_cpus3.commit.committedInstType_0::SimdSha1Hash            0      0.00%     60.35% # Class of committed instruction
system.switch_cpus3.commit.committedInstType_0::SimdSha1Hash2            0      0.00%     60.35% # Class of committed instruction
system.switch_cpus3.commit.committedInstType_0::SimdSha256Hash            0      0.00%     60.35% # Class of committed instruction
system.switch_cpus3.commit.committedInstType_0::SimdSha256Hash2            0      0.00%     60.35% # Class of committed instruction
system.switch_cpus3.commit.committedInstType_0::SimdShaSigma2            0      0.00%     60.35% # Class of committed instruction
system.switch_cpus3.commit.committedInstType_0::SimdShaSigma3            0      0.00%     60.35% # Class of committed instruction
system.switch_cpus3.commit.committedInstType_0::SimdPredAlu            0      0.00%     60.35% # Class of committed instruction
system.switch_cpus3.commit.committedInstType_0::MemRead     20816654      7.57%     67.91% # Class of committed instruction
system.switch_cpus3.commit.committedInstType_0::MemWrite       129028      0.05%     67.96% # Class of committed instruction
system.switch_cpus3.commit.committedInstType_0::FloatMemRead     56974735     20.71%     88.67% # Class of committed instruction
system.switch_cpus3.commit.committedInstType_0::FloatMemWrite     31163131     11.33%    100.00% # Class of committed instruction
system.switch_cpus3.commit.committedInstType_0::IprAccess            0      0.00%    100.00% # Class of committed instruction
system.switch_cpus3.commit.committedInstType_0::InstPrefetch            0      0.00%    100.00% # Class of committed instruction
system.switch_cpus3.commit.committedInstType_0::total    275083794                       # Class of committed instruction
system.switch_cpus3.commit.commitEligibleSamples     23840947                       # number cycles where commit BW limit reached
system.switch_cpus3.decode.idleCycles         5109133                       # Number of cycles decode is idle
system.switch_cpus3.decode.blockedCycles   1546797197                       # Number of cycles decode is blocked
system.switch_cpus3.decode.runCycles         23044429                       # Number of cycles decode is running
system.switch_cpus3.decode.unblockCycles     11624558                       # Number of cycles decode is unblocking
system.switch_cpus3.decode.squashCycles          7506                       # Number of cycles decode is squashing
system.switch_cpus3.decode.branchResolved       608381                       # Number of times decode resolved a  branch
system.switch_cpus3.decode.branchMispred            6                       # Number of times decode detected a branch misprediction
system.switch_cpus3.decode.decodedInsts     275420672                       # Number of instructions handled by decode
system.switch_cpus3.decode.squashedInsts           28                       # Number of squashed instructions handled by decode
system.switch_cpus3.dtb.rdAccesses           77966994                       # TLB accesses on read requests
system.switch_cpus3.dtb.wrAccesses           31299994                       # TLB accesses on write requests
system.switch_cpus3.dtb.rdMisses                83129                       # TLB misses on read requests
system.switch_cpus3.dtb.wrMisses                 5063                       # TLB misses on write requests
system.switch_cpus3.dtb.walker.power_state.pwrStateResidencyTicks::UNDEFINED 14247389486862                       # Cumulative time (in ticks) in various power states
system.switch_cpus3.fetch.icacheStallCycles        17457                       # Number of cycles fetch is stalled on an Icache miss
system.switch_cpus3.fetch.insts             250535783                       # Number of instructions fetch has processed
system.switch_cpus3.fetch.branches            1667548                       # Number of branches that fetch encountered
system.switch_cpus3.fetch.predictedBranches       614603                       # Number of branches that fetch has predicted taken
system.switch_cpus3.fetch.cycles           1586557929                       # Number of cycles fetch has run and was not squashing or blocked
system.switch_cpus3.fetch.squashCycles          15022                       # Number of cycles fetch has spent squashing
system.switch_cpus3.fetch.cacheLines         21905765                       # Number of cache lines fetched
system.switch_cpus3.fetch.icacheSquashes           11                       # Number of outstanding Icache misses that were squashed
system.switch_cpus3.fetch.nisnDist::samples   1586582897                       # Number of instructions fetched each cycle (Total)
system.switch_cpus3.fetch.nisnDist::mean     0.173807                       # Number of instructions fetched each cycle (Total)
system.switch_cpus3.fetch.nisnDist::stdev     1.073390                       # Number of instructions fetched each cycle (Total)
system.switch_cpus3.fetch.nisnDist::underflows            0      0.00%      0.00% # Number of instructions fetched each cycle (Total)
system.switch_cpus3.fetch.nisnDist::0      1540027160     97.07%     97.07% # Number of instructions fetched each cycle (Total)
system.switch_cpus3.fetch.nisnDist::1         2885835      0.18%     97.25% # Number of instructions fetched each cycle (Total)
system.switch_cpus3.fetch.nisnDist::2         1987986      0.13%     97.37% # Number of instructions fetched each cycle (Total)
system.switch_cpus3.fetch.nisnDist::3         2945166      0.19%     97.56% # Number of instructions fetched each cycle (Total)
system.switch_cpus3.fetch.nisnDist::4         5319221      0.34%     97.89% # Number of instructions fetched each cycle (Total)
system.switch_cpus3.fetch.nisnDist::5         5946057      0.37%     98.27% # Number of instructions fetched each cycle (Total)
system.switch_cpus3.fetch.nisnDist::6         3708397      0.23%     98.50% # Number of instructions fetched each cycle (Total)
system.switch_cpus3.fetch.nisnDist::7         3300504      0.21%     98.71% # Number of instructions fetched each cycle (Total)
system.switch_cpus3.fetch.nisnDist::8        20462571      1.29%    100.00% # Number of instructions fetched each cycle (Total)
system.switch_cpus3.fetch.nisnDist::overflows            0      0.00%    100.00% # Number of instructions fetched each cycle (Total)
system.switch_cpus3.fetch.nisnDist::min_value            0                       # Number of instructions fetched each cycle (Total)
system.switch_cpus3.fetch.nisnDist::max_value            8                       # Number of instructions fetched each cycle (Total)
system.switch_cpus3.fetch.nisnDist::total   1586582897                       # Number of instructions fetched each cycle (Total)
system.switch_cpus3.fetch.branchRate         0.001051                       # Number of branch fetches per cycle
system.switch_cpus3.fetch.rate               0.157908                       # Number of inst fetches per cycle
system.switch_cpus3.itb.rdAccesses                  0                       # TLB accesses on read requests
system.switch_cpus3.itb.wrAccesses           21905765                       # TLB accesses on write requests
system.switch_cpus3.itb.rdMisses                    0                       # TLB misses on read requests
system.switch_cpus3.itb.wrMisses                    4                       # TLB misses on write requests
system.switch_cpus3.itb.walker.power_state.pwrStateResidencyTicks::UNDEFINED 14247389486862                       # Cumulative time (in ticks) in various power states
system.switch_cpus3.lsq0.forwLoads           12415452                       # Number of loads that had data forwarded from stores
system.switch_cpus3.lsq0.squashedLoads         177149                       # Number of loads squashed
system.switch_cpus3.lsq0.ignoredResponses           14                       # Number of memory responses ignored because the instruction is squashed
system.switch_cpus3.lsq0.memOrderViolation         2161                       # Number of memory ordering violations
system.switch_cpus3.lsq0.squashedStores         65057                       # Number of stores squashed
system.switch_cpus3.lsq0.rescheduledLoads            0                       # Number of loads that were rescheduled
system.switch_cpus3.lsq0.blockedByCache       5327667                       # Number of times an access to memory failed due to the cache being blocked
system.switch_cpus3.power_state.pwrStateResidencyTicks::OFF 528336949185                       # Cumulative time (in ticks) in various power states
system.switch_cpus3.rename.squashCycles          7506                       # Number of cycles rename is squashing
system.switch_cpus3.rename.idleCycles        10175818                       # Number of cycles rename is idle
system.switch_cpus3.rename.blockCycles      762166917                       # Number of cycles rename is blocking
system.switch_cpus3.rename.serializeStallCycles            0                       # count of cycles rename stalledfor serializing inst
system.switch_cpus3.rename.runCycles         29124435                       # Number of cycles rename is running
system.switch_cpus3.rename.unblockCycles    785108147                       # Number of cycles rename is unblocking
system.switch_cpus3.rename.renamedInsts     275384516                       # Number of instructions processed by rename
system.switch_cpus3.rename.IQFullEvents      42238535                       # Number of times rename has blocked due to IQ full
system.switch_cpus3.rename.LQFullEvents     564127514                       # Number of times rename has blocked due to LQ full
system.switch_cpus3.rename.SQFullEvents     210885891                       # Number of times rename has blocked due to SQ full
system.switch_cpus3.rename.renamedOperands    246789994                       # Number of destination operands rename has renamed
system.switch_cpus3.rename.lookups          837026071                       # Number of register rename lookups that rename has made
system.switch_cpus3.rename.intLookups       254698336                       # Number of integer rename lookups
system.switch_cpus3.rename.fpLookups        455065100                       # Number of floating rename lookups
system.switch_cpus3.rename.committedMaps    246543722                       # Number of HB maps that are committed
system.switch_cpus3.rename.undoneMaps          246272                       # Number of HB maps that are undone due to squashing
system.switch_cpus3.rename.serializing              0                       # count of serializing insts renamed
system.switch_cpus3.rename.tempSerializing            0                       # count of temporary serializing insts renamed
system.switch_cpus3.rename.skidInsts         66501259                       # count of insts added to the skid buffer
system.switch_cpus3.rob.reads              1838076725                       # The number of ROB reads
system.switch_cpus3.rob.writes              550794627                       # The number of ROB writes
system.switch_cpus3.thread0.numInsts        249916575                       # Number of Instructions committed
system.switch_cpus3.thread0.numOps          275083794                       # Number of Ops committed
system.switch_cpus3.thread0.numMemRefs              0                       # Number of Memory References
system.voltage_domain.voltage                       1                       # Voltage in Volts

---------- End Simulation Statistics   ----------
