
---------- Begin Simulation Statistics ----------
final_tick                               14257283421357                       # Number of ticks from beginning of simulation (restored from checkpoints and never reset)
host_inst_rate                                  87708                       # Simulator instruction rate (inst/s)
host_mem_usage                               17296280                       # Number of bytes of host memory used
host_op_rate                                    96540                       # Simulator op (including micro ops) rate (op/s)
host_seconds                                 11397.98                       # Real time elapsed on the host
host_tick_rate                               47221605                       # Simulator tick rate (ticks/s)
sim_freq                                 1000000000000                       # Frequency of simulated ticks
sim_insts                                   999692897                       # Number of instructions simulated
sim_ops                                    1100364406                       # Number of ops (including micro ops) simulated
sim_seconds                                  0.538231                       # Number of seconds simulated
sim_ticks                                538230826071                       # Number of ticks simulated
system.cpu0.committedInsts                         19                       # Number of instructions committed
system.cpu0.committedOps                           20                       # Number of ops (including micro ops) committed
system.cpu0.idle_fraction                           0                       # Percentage of idle cycles
system.cpu0.l2bus.snoop_filter.hit_multi_requests            0                       # Number of requests hitting in the snoop filter with multiple (>1) holders of the requested data.
system.cpu0.l2bus.snoop_filter.hit_multi_snoops            0                       # Number of snoops hitting in the snoop filter with multiple (>1) holders of the requested data.
system.cpu0.l2bus.snoop_filter.hit_single_requests     12661908                       # Number of requests hitting in the snoop filter with a single holder of the requested data.
system.cpu0.l2bus.snoop_filter.hit_single_snoops      4663207                       # Number of snoops hitting in the snoop filter with a single holder of the requested data.
system.cpu0.l2bus.snoop_filter.tot_requests     21973251                       # Total number of requests made to the snoop filter.
system.cpu0.l2bus.snoop_filter.tot_snoops      4663207                       # Total number of snoops made to the snoop filter.
system.cpu0.mmucache.mmubus.snoop_filter.hit_multi_requests            0                       # Number of requests hitting in the snoop filter with multiple (>1) holders of the requested data.
system.cpu0.mmucache.mmubus.snoop_filter.hit_multi_snoops            0                       # Number of snoops hitting in the snoop filter with multiple (>1) holders of the requested data.
system.cpu0.mmucache.mmubus.snoop_filter.hit_single_requests            0                       # Number of requests hitting in the snoop filter with a single holder of the requested data.
system.cpu0.mmucache.mmubus.snoop_filter.hit_single_snoops            0                       # Number of snoops hitting in the snoop filter with a single holder of the requested data.
system.cpu0.mmucache.mmubus.snoop_filter.tot_requests            0                       # Total number of requests made to the snoop filter.
system.cpu0.mmucache.mmubus.snoop_filter.tot_snoops            0                       # Total number of snoops made to the snoop filter.
system.cpu0.not_idle_fraction                       1                       # Percentage of non-idle cycles
system.cpu0.numCycles                              30                       # number of cpu cycles simulated
system.cpu0.numWorkItemsCompleted                   0                       # number of work items this cpu completed
system.cpu0.numWorkItemsStarted                     0                       # number of work items this cpu started
system.cpu0.num_busy_cycles                        30                       # Number of busy cycles
system.cpu0.num_conditional_control_insts            0                       # number of instructions that are conditional controls
system.cpu0.num_fp_alu_accesses                    20                       # Number of float alu accesses
system.cpu0.num_fp_insts                           20                       # number of float instructions
system.cpu0.num_fp_register_reads                  36                       # number of times the floating registers were read
system.cpu0.num_fp_register_writes                 19                       # number of times the floating registers were written
system.cpu0.num_func_calls                          0                       # number of times a function call or return occured
system.cpu0.num_idle_cycles                         0                       # Number of idle cycles
system.cpu0.num_int_alu_accesses                    8                       # Number of integer alu accesses
system.cpu0.num_int_insts                           8                       # number of integer instructions
system.cpu0.num_int_register_reads                 24                       # number of times the integer registers were read
system.cpu0.num_int_register_writes                 0                       # number of times the integer registers were written
system.cpu0.num_load_insts                          7                       # Number of load instructions
system.cpu0.num_mem_refs                            8                       # number of memory refs
system.cpu0.num_store_insts                         1                       # Number of store instructions
system.cpu0.num_vec_alu_accesses                    0                       # Number of vector alu accesses
system.cpu0.num_vec_insts                           0                       # number of vector instructions
system.cpu0.num_vec_register_reads                  0                       # number of times the vector registers were read
system.cpu0.num_vec_register_writes                 0                       # number of times the vector registers were written
system.cpu0.op_class::No_OpClass                    0      0.00%      0.00% # Class of executed instruction
system.cpu0.op_class::IntAlu                        1      5.00%      5.00% # Class of executed instruction
system.cpu0.op_class::IntMult                       0      0.00%      5.00% # Class of executed instruction
system.cpu0.op_class::IntDiv                        0      0.00%      5.00% # Class of executed instruction
system.cpu0.op_class::FloatAdd                      0      0.00%      5.00% # Class of executed instruction
system.cpu0.op_class::FloatCmp                      0      0.00%      5.00% # Class of executed instruction
system.cpu0.op_class::FloatCvt                      0      0.00%      5.00% # Class of executed instruction
system.cpu0.op_class::FloatMult                     0      0.00%      5.00% # Class of executed instruction
system.cpu0.op_class::FloatMultAcc                  0      0.00%      5.00% # Class of executed instruction
system.cpu0.op_class::FloatDiv                      0      0.00%      5.00% # Class of executed instruction
system.cpu0.op_class::FloatMisc                     0      0.00%      5.00% # Class of executed instruction
system.cpu0.op_class::FloatSqrt                     0      0.00%      5.00% # Class of executed instruction
system.cpu0.op_class::SimdAdd                       0      0.00%      5.00% # Class of executed instruction
system.cpu0.op_class::SimdAddAcc                    0      0.00%      5.00% # Class of executed instruction
system.cpu0.op_class::SimdAlu                       0      0.00%      5.00% # Class of executed instruction
system.cpu0.op_class::SimdCmp                       0      0.00%      5.00% # Class of executed instruction
system.cpu0.op_class::SimdCvt                       0      0.00%      5.00% # Class of executed instruction
system.cpu0.op_class::SimdMisc                      0      0.00%      5.00% # Class of executed instruction
system.cpu0.op_class::SimdMult                      0      0.00%      5.00% # Class of executed instruction
system.cpu0.op_class::SimdMultAcc                   0      0.00%      5.00% # Class of executed instruction
system.cpu0.op_class::SimdShift                     0      0.00%      5.00% # Class of executed instruction
system.cpu0.op_class::SimdShiftAcc                  0      0.00%      5.00% # Class of executed instruction
system.cpu0.op_class::SimdDiv                       0      0.00%      5.00% # Class of executed instruction
system.cpu0.op_class::SimdSqrt                      0      0.00%      5.00% # Class of executed instruction
system.cpu0.op_class::SimdFloatAdd                  5     25.00%     30.00% # Class of executed instruction
system.cpu0.op_class::SimdFloatAlu                  0      0.00%     30.00% # Class of executed instruction
system.cpu0.op_class::SimdFloatCmp                  0      0.00%     30.00% # Class of executed instruction
system.cpu0.op_class::SimdFloatCvt                  0      0.00%     30.00% # Class of executed instruction
system.cpu0.op_class::SimdFloatDiv                  0      0.00%     30.00% # Class of executed instruction
system.cpu0.op_class::SimdFloatMisc                 0      0.00%     30.00% # Class of executed instruction
system.cpu0.op_class::SimdFloatMult                 6     30.00%     60.00% # Class of executed instruction
system.cpu0.op_class::SimdFloatMultAcc              0      0.00%     60.00% # Class of executed instruction
system.cpu0.op_class::SimdFloatSqrt                 0      0.00%     60.00% # Class of executed instruction
system.cpu0.op_class::SimdReduceAdd                 0      0.00%     60.00% # Class of executed instruction
system.cpu0.op_class::SimdReduceAlu                 0      0.00%     60.00% # Class of executed instruction
system.cpu0.op_class::SimdReduceCmp                 0      0.00%     60.00% # Class of executed instruction
system.cpu0.op_class::SimdFloatReduceAdd            0      0.00%     60.00% # Class of executed instruction
system.cpu0.op_class::SimdFloatReduceCmp            0      0.00%     60.00% # Class of executed instruction
system.cpu0.op_class::SimdAes                       0      0.00%     60.00% # Class of executed instruction
system.cpu0.op_class::SimdAesMix                    0      0.00%     60.00% # Class of executed instruction
system.cpu0.op_class::SimdSha1Hash                  0      0.00%     60.00% # Class of executed instruction
system.cpu0.op_class::SimdSha1Hash2                 0      0.00%     60.00% # Class of executed instruction
system.cpu0.op_class::SimdSha256Hash                0      0.00%     60.00% # Class of executed instruction
system.cpu0.op_class::SimdSha256Hash2               0      0.00%     60.00% # Class of executed instruction
system.cpu0.op_class::SimdShaSigma2                 0      0.00%     60.00% # Class of executed instruction
system.cpu0.op_class::SimdShaSigma3                 0      0.00%     60.00% # Class of executed instruction
system.cpu0.op_class::SimdPredAlu                   0      0.00%     60.00% # Class of executed instruction
system.cpu0.op_class::MemRead                       0      0.00%     60.00% # Class of executed instruction
system.cpu0.op_class::MemWrite                      0      0.00%     60.00% # Class of executed instruction
system.cpu0.op_class::FloatMemRead                  7     35.00%     95.00% # Class of executed instruction
system.cpu0.op_class::FloatMemWrite                 1      5.00%    100.00% # Class of executed instruction
system.cpu0.op_class::IprAccess                     0      0.00%    100.00% # Class of executed instruction
system.cpu0.op_class::InstPrefetch                  0      0.00%    100.00% # Class of executed instruction
system.cpu0.op_class::total                        20                       # Class of executed instruction
system.cpu0.workload.numSyscalls                    0                       # Number of system calls
system.cpu1.committedInsts                         19                       # Number of instructions committed
system.cpu1.committedOps                           20                       # Number of ops (including micro ops) committed
system.cpu1.idle_fraction                           0                       # Percentage of idle cycles
system.cpu1.l2bus.snoop_filter.hit_multi_requests            0                       # Number of requests hitting in the snoop filter with multiple (>1) holders of the requested data.
system.cpu1.l2bus.snoop_filter.hit_multi_snoops            0                       # Number of snoops hitting in the snoop filter with multiple (>1) holders of the requested data.
system.cpu1.l2bus.snoop_filter.hit_single_requests     12654864                       # Number of requests hitting in the snoop filter with a single holder of the requested data.
system.cpu1.l2bus.snoop_filter.hit_single_snoops      4657512                       # Number of snoops hitting in the snoop filter with a single holder of the requested data.
system.cpu1.l2bus.snoop_filter.tot_requests     21961175                       # Total number of requests made to the snoop filter.
system.cpu1.l2bus.snoop_filter.tot_snoops      4657512                       # Total number of snoops made to the snoop filter.
system.cpu1.mmucache.mmubus.snoop_filter.hit_multi_requests            0                       # Number of requests hitting in the snoop filter with multiple (>1) holders of the requested data.
system.cpu1.mmucache.mmubus.snoop_filter.hit_multi_snoops            0                       # Number of snoops hitting in the snoop filter with multiple (>1) holders of the requested data.
system.cpu1.mmucache.mmubus.snoop_filter.hit_single_requests            0                       # Number of requests hitting in the snoop filter with a single holder of the requested data.
system.cpu1.mmucache.mmubus.snoop_filter.hit_single_snoops            0                       # Number of snoops hitting in the snoop filter with a single holder of the requested data.
system.cpu1.mmucache.mmubus.snoop_filter.tot_requests            0                       # Total number of requests made to the snoop filter.
system.cpu1.mmucache.mmubus.snoop_filter.tot_snoops            0                       # Total number of snoops made to the snoop filter.
system.cpu1.not_idle_fraction                       1                       # Percentage of non-idle cycles
system.cpu1.numCycles                              30                       # number of cpu cycles simulated
system.cpu1.numWorkItemsCompleted                   0                       # number of work items this cpu completed
system.cpu1.numWorkItemsStarted                     0                       # number of work items this cpu started
system.cpu1.num_busy_cycles                        30                       # Number of busy cycles
system.cpu1.num_conditional_control_insts            0                       # number of instructions that are conditional controls
system.cpu1.num_fp_alu_accesses                    20                       # Number of float alu accesses
system.cpu1.num_fp_insts                           20                       # number of float instructions
system.cpu1.num_fp_register_reads                  36                       # number of times the floating registers were read
system.cpu1.num_fp_register_writes                 19                       # number of times the floating registers were written
system.cpu1.num_func_calls                          0                       # number of times a function call or return occured
system.cpu1.num_idle_cycles                         0                       # Number of idle cycles
system.cpu1.num_int_alu_accesses                    8                       # Number of integer alu accesses
system.cpu1.num_int_insts                           8                       # number of integer instructions
system.cpu1.num_int_register_reads                 24                       # number of times the integer registers were read
system.cpu1.num_int_register_writes                 0                       # number of times the integer registers were written
system.cpu1.num_load_insts                          7                       # Number of load instructions
system.cpu1.num_mem_refs                            8                       # number of memory refs
system.cpu1.num_store_insts                         1                       # Number of store instructions
system.cpu1.num_vec_alu_accesses                    0                       # Number of vector alu accesses
system.cpu1.num_vec_insts                           0                       # number of vector instructions
system.cpu1.num_vec_register_reads                  0                       # number of times the vector registers were read
system.cpu1.num_vec_register_writes                 0                       # number of times the vector registers were written
system.cpu1.op_class::No_OpClass                    0      0.00%      0.00% # Class of executed instruction
system.cpu1.op_class::IntAlu                        1      5.00%      5.00% # Class of executed instruction
system.cpu1.op_class::IntMult                       0      0.00%      5.00% # Class of executed instruction
system.cpu1.op_class::IntDiv                        0      0.00%      5.00% # Class of executed instruction
system.cpu1.op_class::FloatAdd                      0      0.00%      5.00% # Class of executed instruction
system.cpu1.op_class::FloatCmp                      0      0.00%      5.00% # Class of executed instruction
system.cpu1.op_class::FloatCvt                      0      0.00%      5.00% # Class of executed instruction
system.cpu1.op_class::FloatMult                     0      0.00%      5.00% # Class of executed instruction
system.cpu1.op_class::FloatMultAcc                  0      0.00%      5.00% # Class of executed instruction
system.cpu1.op_class::FloatDiv                      0      0.00%      5.00% # Class of executed instruction
system.cpu1.op_class::FloatMisc                     0      0.00%      5.00% # Class of executed instruction
system.cpu1.op_class::FloatSqrt                     0      0.00%      5.00% # Class of executed instruction
system.cpu1.op_class::SimdAdd                       0      0.00%      5.00% # Class of executed instruction
system.cpu1.op_class::SimdAddAcc                    0      0.00%      5.00% # Class of executed instruction
system.cpu1.op_class::SimdAlu                       0      0.00%      5.00% # Class of executed instruction
system.cpu1.op_class::SimdCmp                       0      0.00%      5.00% # Class of executed instruction
system.cpu1.op_class::SimdCvt                       0      0.00%      5.00% # Class of executed instruction
system.cpu1.op_class::SimdMisc                      0      0.00%      5.00% # Class of executed instruction
system.cpu1.op_class::SimdMult                      0      0.00%      5.00% # Class of executed instruction
system.cpu1.op_class::SimdMultAcc                   0      0.00%      5.00% # Class of executed instruction
system.cpu1.op_class::SimdShift                     0      0.00%      5.00% # Class of executed instruction
system.cpu1.op_class::SimdShiftAcc                  0      0.00%      5.00% # Class of executed instruction
system.cpu1.op_class::SimdDiv                       0      0.00%      5.00% # Class of executed instruction
system.cpu1.op_class::SimdSqrt                      0      0.00%      5.00% # Class of executed instruction
system.cpu1.op_class::SimdFloatAdd                  5     25.00%     30.00% # Class of executed instruction
system.cpu1.op_class::SimdFloatAlu                  0      0.00%     30.00% # Class of executed instruction
system.cpu1.op_class::SimdFloatCmp                  0      0.00%     30.00% # Class of executed instruction
system.cpu1.op_class::SimdFloatCvt                  0      0.00%     30.00% # Class of executed instruction
system.cpu1.op_class::SimdFloatDiv                  0      0.00%     30.00% # Class of executed instruction
system.cpu1.op_class::SimdFloatMisc                 0      0.00%     30.00% # Class of executed instruction
system.cpu1.op_class::SimdFloatMult                 6     30.00%     60.00% # Class of executed instruction
system.cpu1.op_class::SimdFloatMultAcc              0      0.00%     60.00% # Class of executed instruction
system.cpu1.op_class::SimdFloatSqrt                 0      0.00%     60.00% # Class of executed instruction
system.cpu1.op_class::SimdReduceAdd                 0      0.00%     60.00% # Class of executed instruction
system.cpu1.op_class::SimdReduceAlu                 0      0.00%     60.00% # Class of executed instruction
system.cpu1.op_class::SimdReduceCmp                 0      0.00%     60.00% # Class of executed instruction
system.cpu1.op_class::SimdFloatReduceAdd            0      0.00%     60.00% # Class of executed instruction
system.cpu1.op_class::SimdFloatReduceCmp            0      0.00%     60.00% # Class of executed instruction
system.cpu1.op_class::SimdAes                       0      0.00%     60.00% # Class of executed instruction
system.cpu1.op_class::SimdAesMix                    0      0.00%     60.00% # Class of executed instruction
system.cpu1.op_class::SimdSha1Hash                  0      0.00%     60.00% # Class of executed instruction
system.cpu1.op_class::SimdSha1Hash2                 0      0.00%     60.00% # Class of executed instruction
system.cpu1.op_class::SimdSha256Hash                0      0.00%     60.00% # Class of executed instruction
system.cpu1.op_class::SimdSha256Hash2               0      0.00%     60.00% # Class of executed instruction
system.cpu1.op_class::SimdShaSigma2                 0      0.00%     60.00% # Class of executed instruction
system.cpu1.op_class::SimdShaSigma3                 0      0.00%     60.00% # Class of executed instruction
system.cpu1.op_class::SimdPredAlu                   0      0.00%     60.00% # Class of executed instruction
system.cpu1.op_class::MemRead                       0      0.00%     60.00% # Class of executed instruction
system.cpu1.op_class::MemWrite                      0      0.00%     60.00% # Class of executed instruction
system.cpu1.op_class::FloatMemRead                  7     35.00%     95.00% # Class of executed instruction
system.cpu1.op_class::FloatMemWrite                 1      5.00%    100.00% # Class of executed instruction
system.cpu1.op_class::IprAccess                     0      0.00%    100.00% # Class of executed instruction
system.cpu1.op_class::InstPrefetch                  0      0.00%    100.00% # Class of executed instruction
system.cpu1.op_class::total                        20                       # Class of executed instruction
system.cpu1.workload.numSyscalls                    0                       # Number of system calls
system.cpu2.committedInsts                         19                       # Number of instructions committed
system.cpu2.committedOps                           20                       # Number of ops (including micro ops) committed
system.cpu2.idle_fraction                           0                       # Percentage of idle cycles
system.cpu2.l2bus.snoop_filter.hit_multi_requests            0                       # Number of requests hitting in the snoop filter with multiple (>1) holders of the requested data.
system.cpu2.l2bus.snoop_filter.hit_multi_snoops            0                       # Number of snoops hitting in the snoop filter with multiple (>1) holders of the requested data.
system.cpu2.l2bus.snoop_filter.hit_single_requests     12656344                       # Number of requests hitting in the snoop filter with a single holder of the requested data.
system.cpu2.l2bus.snoop_filter.hit_single_snoops      4663822                       # Number of snoops hitting in the snoop filter with a single holder of the requested data.
system.cpu2.l2bus.snoop_filter.tot_requests     21963801                       # Total number of requests made to the snoop filter.
system.cpu2.l2bus.snoop_filter.tot_snoops      4663822                       # Total number of snoops made to the snoop filter.
system.cpu2.mmucache.mmubus.snoop_filter.hit_multi_requests            0                       # Number of requests hitting in the snoop filter with multiple (>1) holders of the requested data.
system.cpu2.mmucache.mmubus.snoop_filter.hit_multi_snoops            0                       # Number of snoops hitting in the snoop filter with multiple (>1) holders of the requested data.
system.cpu2.mmucache.mmubus.snoop_filter.hit_single_requests            0                       # Number of requests hitting in the snoop filter with a single holder of the requested data.
system.cpu2.mmucache.mmubus.snoop_filter.hit_single_snoops            0                       # Number of snoops hitting in the snoop filter with a single holder of the requested data.
system.cpu2.mmucache.mmubus.snoop_filter.tot_requests            0                       # Total number of requests made to the snoop filter.
system.cpu2.mmucache.mmubus.snoop_filter.tot_snoops            0                       # Total number of snoops made to the snoop filter.
system.cpu2.not_idle_fraction                       1                       # Percentage of non-idle cycles
system.cpu2.numCycles                              30                       # number of cpu cycles simulated
system.cpu2.numWorkItemsCompleted                   0                       # number of work items this cpu completed
system.cpu2.numWorkItemsStarted                     0                       # number of work items this cpu started
system.cpu2.num_busy_cycles                        30                       # Number of busy cycles
system.cpu2.num_conditional_control_insts            0                       # number of instructions that are conditional controls
system.cpu2.num_fp_alu_accesses                    20                       # Number of float alu accesses
system.cpu2.num_fp_insts                           20                       # number of float instructions
system.cpu2.num_fp_register_reads                  36                       # number of times the floating registers were read
system.cpu2.num_fp_register_writes                 19                       # number of times the floating registers were written
system.cpu2.num_func_calls                          0                       # number of times a function call or return occured
system.cpu2.num_idle_cycles                         0                       # Number of idle cycles
system.cpu2.num_int_alu_accesses                    8                       # Number of integer alu accesses
system.cpu2.num_int_insts                           8                       # number of integer instructions
system.cpu2.num_int_register_reads                 24                       # number of times the integer registers were read
system.cpu2.num_int_register_writes                 0                       # number of times the integer registers were written
system.cpu2.num_load_insts                          7                       # Number of load instructions
system.cpu2.num_mem_refs                            8                       # number of memory refs
system.cpu2.num_store_insts                         1                       # Number of store instructions
system.cpu2.num_vec_alu_accesses                    0                       # Number of vector alu accesses
system.cpu2.num_vec_insts                           0                       # number of vector instructions
system.cpu2.num_vec_register_reads                  0                       # number of times the vector registers were read
system.cpu2.num_vec_register_writes                 0                       # number of times the vector registers were written
system.cpu2.op_class::No_OpClass                    0      0.00%      0.00% # Class of executed instruction
system.cpu2.op_class::IntAlu                        1      5.00%      5.00% # Class of executed instruction
system.cpu2.op_class::IntMult                       0      0.00%      5.00% # Class of executed instruction
system.cpu2.op_class::IntDiv                        0      0.00%      5.00% # Class of executed instruction
system.cpu2.op_class::FloatAdd                      0      0.00%      5.00% # Class of executed instruction
system.cpu2.op_class::FloatCmp                      0      0.00%      5.00% # Class of executed instruction
system.cpu2.op_class::FloatCvt                      0      0.00%      5.00% # Class of executed instruction
system.cpu2.op_class::FloatMult                     0      0.00%      5.00% # Class of executed instruction
system.cpu2.op_class::FloatMultAcc                  0      0.00%      5.00% # Class of executed instruction
system.cpu2.op_class::FloatDiv                      0      0.00%      5.00% # Class of executed instruction
system.cpu2.op_class::FloatMisc                     0      0.00%      5.00% # Class of executed instruction
system.cpu2.op_class::FloatSqrt                     0      0.00%      5.00% # Class of executed instruction
system.cpu2.op_class::SimdAdd                       0      0.00%      5.00% # Class of executed instruction
system.cpu2.op_class::SimdAddAcc                    0      0.00%      5.00% # Class of executed instruction
system.cpu2.op_class::SimdAlu                       0      0.00%      5.00% # Class of executed instruction
system.cpu2.op_class::SimdCmp                       0      0.00%      5.00% # Class of executed instruction
system.cpu2.op_class::SimdCvt                       0      0.00%      5.00% # Class of executed instruction
system.cpu2.op_class::SimdMisc                      0      0.00%      5.00% # Class of executed instruction
system.cpu2.op_class::SimdMult                      0      0.00%      5.00% # Class of executed instruction
system.cpu2.op_class::SimdMultAcc                   0      0.00%      5.00% # Class of executed instruction
system.cpu2.op_class::SimdShift                     0      0.00%      5.00% # Class of executed instruction
system.cpu2.op_class::SimdShiftAcc                  0      0.00%      5.00% # Class of executed instruction
system.cpu2.op_class::SimdDiv                       0      0.00%      5.00% # Class of executed instruction
system.cpu2.op_class::SimdSqrt                      0      0.00%      5.00% # Class of executed instruction
system.cpu2.op_class::SimdFloatAdd                  5     25.00%     30.00% # Class of executed instruction
system.cpu2.op_class::SimdFloatAlu                  0      0.00%     30.00% # Class of executed instruction
system.cpu2.op_class::SimdFloatCmp                  0      0.00%     30.00% # Class of executed instruction
system.cpu2.op_class::SimdFloatCvt                  0      0.00%     30.00% # Class of executed instruction
system.cpu2.op_class::SimdFloatDiv                  0      0.00%     30.00% # Class of executed instruction
system.cpu2.op_class::SimdFloatMisc                 0      0.00%     30.00% # Class of executed instruction
system.cpu2.op_class::SimdFloatMult                 6     30.00%     60.00% # Class of executed instruction
system.cpu2.op_class::SimdFloatMultAcc              0      0.00%     60.00% # Class of executed instruction
system.cpu2.op_class::SimdFloatSqrt                 0      0.00%     60.00% # Class of executed instruction
system.cpu2.op_class::SimdReduceAdd                 0      0.00%     60.00% # Class of executed instruction
system.cpu2.op_class::SimdReduceAlu                 0      0.00%     60.00% # Class of executed instruction
system.cpu2.op_class::SimdReduceCmp                 0      0.00%     60.00% # Class of executed instruction
system.cpu2.op_class::SimdFloatReduceAdd            0      0.00%     60.00% # Class of executed instruction
system.cpu2.op_class::SimdFloatReduceCmp            0      0.00%     60.00% # Class of executed instruction
system.cpu2.op_class::SimdAes                       0      0.00%     60.00% # Class of executed instruction
system.cpu2.op_class::SimdAesMix                    0      0.00%     60.00% # Class of executed instruction
system.cpu2.op_class::SimdSha1Hash                  0      0.00%     60.00% # Class of executed instruction
system.cpu2.op_class::SimdSha1Hash2                 0      0.00%     60.00% # Class of executed instruction
system.cpu2.op_class::SimdSha256Hash                0      0.00%     60.00% # Class of executed instruction
system.cpu2.op_class::SimdSha256Hash2               0      0.00%     60.00% # Class of executed instruction
system.cpu2.op_class::SimdShaSigma2                 0      0.00%     60.00% # Class of executed instruction
system.cpu2.op_class::SimdShaSigma3                 0      0.00%     60.00% # Class of executed instruction
system.cpu2.op_class::SimdPredAlu                   0      0.00%     60.00% # Class of executed instruction
system.cpu2.op_class::MemRead                       0      0.00%     60.00% # Class of executed instruction
system.cpu2.op_class::MemWrite                      0      0.00%     60.00% # Class of executed instruction
system.cpu2.op_class::FloatMemRead                  7     35.00%     95.00% # Class of executed instruction
system.cpu2.op_class::FloatMemWrite                 1      5.00%    100.00% # Class of executed instruction
system.cpu2.op_class::IprAccess                     0      0.00%    100.00% # Class of executed instruction
system.cpu2.op_class::InstPrefetch                  0      0.00%    100.00% # Class of executed instruction
system.cpu2.op_class::total                        20                       # Class of executed instruction
system.cpu2.workload.numSyscalls                    0                       # Number of system calls
system.cpu3.committedInsts                         19                       # Number of instructions committed
system.cpu3.committedOps                           20                       # Number of ops (including micro ops) committed
system.cpu3.idle_fraction                           0                       # Percentage of idle cycles
system.cpu3.l2bus.snoop_filter.hit_multi_requests            0                       # Number of requests hitting in the snoop filter with multiple (>1) holders of the requested data.
system.cpu3.l2bus.snoop_filter.hit_multi_snoops            0                       # Number of snoops hitting in the snoop filter with multiple (>1) holders of the requested data.
system.cpu3.l2bus.snoop_filter.hit_single_requests     12662778                       # Number of requests hitting in the snoop filter with a single holder of the requested data.
system.cpu3.l2bus.snoop_filter.hit_single_snoops      4658010                       # Number of snoops hitting in the snoop filter with a single holder of the requested data.
system.cpu3.l2bus.snoop_filter.tot_requests     21974691                       # Total number of requests made to the snoop filter.
system.cpu3.l2bus.snoop_filter.tot_snoops      4658010                       # Total number of snoops made to the snoop filter.
system.cpu3.mmucache.mmubus.snoop_filter.hit_multi_requests            0                       # Number of requests hitting in the snoop filter with multiple (>1) holders of the requested data.
system.cpu3.mmucache.mmubus.snoop_filter.hit_multi_snoops            0                       # Number of snoops hitting in the snoop filter with multiple (>1) holders of the requested data.
system.cpu3.mmucache.mmubus.snoop_filter.hit_single_requests            0                       # Number of requests hitting in the snoop filter with a single holder of the requested data.
system.cpu3.mmucache.mmubus.snoop_filter.hit_single_snoops            0                       # Number of snoops hitting in the snoop filter with a single holder of the requested data.
system.cpu3.mmucache.mmubus.snoop_filter.tot_requests            0                       # Total number of requests made to the snoop filter.
system.cpu3.mmucache.mmubus.snoop_filter.tot_snoops            0                       # Total number of snoops made to the snoop filter.
system.cpu3.not_idle_fraction                       1                       # Percentage of non-idle cycles
system.cpu3.numCycles                              30                       # number of cpu cycles simulated
system.cpu3.numWorkItemsCompleted                   0                       # number of work items this cpu completed
system.cpu3.numWorkItemsStarted                     0                       # number of work items this cpu started
system.cpu3.num_busy_cycles                        30                       # Number of busy cycles
system.cpu3.num_conditional_control_insts            0                       # number of instructions that are conditional controls
system.cpu3.num_fp_alu_accesses                    20                       # Number of float alu accesses
system.cpu3.num_fp_insts                           20                       # number of float instructions
system.cpu3.num_fp_register_reads                  36                       # number of times the floating registers were read
system.cpu3.num_fp_register_writes                 19                       # number of times the floating registers were written
system.cpu3.num_func_calls                          0                       # number of times a function call or return occured
system.cpu3.num_idle_cycles                         0                       # Number of idle cycles
system.cpu3.num_int_alu_accesses                    8                       # Number of integer alu accesses
system.cpu3.num_int_insts                           8                       # number of integer instructions
system.cpu3.num_int_register_reads                 24                       # number of times the integer registers were read
system.cpu3.num_int_register_writes                 0                       # number of times the integer registers were written
system.cpu3.num_load_insts                          7                       # Number of load instructions
system.cpu3.num_mem_refs                            8                       # number of memory refs
system.cpu3.num_store_insts                         1                       # Number of store instructions
system.cpu3.num_vec_alu_accesses                    0                       # Number of vector alu accesses
system.cpu3.num_vec_insts                           0                       # number of vector instructions
system.cpu3.num_vec_register_reads                  0                       # number of times the vector registers were read
system.cpu3.num_vec_register_writes                 0                       # number of times the vector registers were written
system.cpu3.op_class::No_OpClass                    0      0.00%      0.00% # Class of executed instruction
system.cpu3.op_class::IntAlu                        1      5.00%      5.00% # Class of executed instruction
system.cpu3.op_class::IntMult                       0      0.00%      5.00% # Class of executed instruction
system.cpu3.op_class::IntDiv                        0      0.00%      5.00% # Class of executed instruction
system.cpu3.op_class::FloatAdd                      0      0.00%      5.00% # Class of executed instruction
system.cpu3.op_class::FloatCmp                      0      0.00%      5.00% # Class of executed instruction
system.cpu3.op_class::FloatCvt                      0      0.00%      5.00% # Class of executed instruction
system.cpu3.op_class::FloatMult                     0      0.00%      5.00% # Class of executed instruction
system.cpu3.op_class::FloatMultAcc                  0      0.00%      5.00% # Class of executed instruction
system.cpu3.op_class::FloatDiv                      0      0.00%      5.00% # Class of executed instruction
system.cpu3.op_class::FloatMisc                     0      0.00%      5.00% # Class of executed instruction
system.cpu3.op_class::FloatSqrt                     0      0.00%      5.00% # Class of executed instruction
system.cpu3.op_class::SimdAdd                       0      0.00%      5.00% # Class of executed instruction
system.cpu3.op_class::SimdAddAcc                    0      0.00%      5.00% # Class of executed instruction
system.cpu3.op_class::SimdAlu                       0      0.00%      5.00% # Class of executed instruction
system.cpu3.op_class::SimdCmp                       0      0.00%      5.00% # Class of executed instruction
system.cpu3.op_class::SimdCvt                       0      0.00%      5.00% # Class of executed instruction
system.cpu3.op_class::SimdMisc                      0      0.00%      5.00% # Class of executed instruction
system.cpu3.op_class::SimdMult                      0      0.00%      5.00% # Class of executed instruction
system.cpu3.op_class::SimdMultAcc                   0      0.00%      5.00% # Class of executed instruction
system.cpu3.op_class::SimdShift                     0      0.00%      5.00% # Class of executed instruction
system.cpu3.op_class::SimdShiftAcc                  0      0.00%      5.00% # Class of executed instruction
system.cpu3.op_class::SimdDiv                       0      0.00%      5.00% # Class of executed instruction
system.cpu3.op_class::SimdSqrt                      0      0.00%      5.00% # Class of executed instruction
system.cpu3.op_class::SimdFloatAdd                  5     25.00%     30.00% # Class of executed instruction
system.cpu3.op_class::SimdFloatAlu                  0      0.00%     30.00% # Class of executed instruction
system.cpu3.op_class::SimdFloatCmp                  0      0.00%     30.00% # Class of executed instruction
system.cpu3.op_class::SimdFloatCvt                  0      0.00%     30.00% # Class of executed instruction
system.cpu3.op_class::SimdFloatDiv                  0      0.00%     30.00% # Class of executed instruction
system.cpu3.op_class::SimdFloatMisc                 0      0.00%     30.00% # Class of executed instruction
system.cpu3.op_class::SimdFloatMult                 6     30.00%     60.00% # Class of executed instruction
system.cpu3.op_class::SimdFloatMultAcc              0      0.00%     60.00% # Class of executed instruction
system.cpu3.op_class::SimdFloatSqrt                 0      0.00%     60.00% # Class of executed instruction
system.cpu3.op_class::SimdReduceAdd                 0      0.00%     60.00% # Class of executed instruction
system.cpu3.op_class::SimdReduceAlu                 0      0.00%     60.00% # Class of executed instruction
system.cpu3.op_class::SimdReduceCmp                 0      0.00%     60.00% # Class of executed instruction
system.cpu3.op_class::SimdFloatReduceAdd            0      0.00%     60.00% # Class of executed instruction
system.cpu3.op_class::SimdFloatReduceCmp            0      0.00%     60.00% # Class of executed instruction
system.cpu3.op_class::SimdAes                       0      0.00%     60.00% # Class of executed instruction
system.cpu3.op_class::SimdAesMix                    0      0.00%     60.00% # Class of executed instruction
system.cpu3.op_class::SimdSha1Hash                  0      0.00%     60.00% # Class of executed instruction
system.cpu3.op_class::SimdSha1Hash2                 0      0.00%     60.00% # Class of executed instruction
system.cpu3.op_class::SimdSha256Hash                0      0.00%     60.00% # Class of executed instruction
system.cpu3.op_class::SimdSha256Hash2               0      0.00%     60.00% # Class of executed instruction
system.cpu3.op_class::SimdShaSigma2                 0      0.00%     60.00% # Class of executed instruction
system.cpu3.op_class::SimdShaSigma3                 0      0.00%     60.00% # Class of executed instruction
system.cpu3.op_class::SimdPredAlu                   0      0.00%     60.00% # Class of executed instruction
system.cpu3.op_class::MemRead                       0      0.00%     60.00% # Class of executed instruction
system.cpu3.op_class::MemWrite                      0      0.00%     60.00% # Class of executed instruction
system.cpu3.op_class::FloatMemRead                  7     35.00%     95.00% # Class of executed instruction
system.cpu3.op_class::FloatMemWrite                 1      5.00%    100.00% # Class of executed instruction
system.cpu3.op_class::IprAccess                     0      0.00%    100.00% # Class of executed instruction
system.cpu3.op_class::InstPrefetch                  0      0.00%    100.00% # Class of executed instruction
system.cpu3.op_class::total                        20                       # Class of executed instruction
system.cpu3.workload.numSyscalls                    0                       # Number of system calls
system.l3bus.snoop_filter.hit_multi_requests            0                       # Number of requests hitting in the snoop filter with multiple (>1) holders of the requested data.
system.l3bus.snoop_filter.hit_multi_snoops            0                       # Number of snoops hitting in the snoop filter with multiple (>1) holders of the requested data.
system.l3bus.snoop_filter.hit_single_requests     38468253                       # Number of requests hitting in the snoop filter with a single holder of the requested data.
system.l3bus.snoop_filter.hit_single_snoops            0                       # Number of snoops hitting in the snoop filter with a single holder of the requested data.
system.l3bus.snoop_filter.tot_requests       76611046                       # Total number of requests made to the snoop filter.
system.l3bus.snoop_filter.tot_snoops                0                       # Total number of snoops made to the snoop filter.
system.membus.snoop_filter.hit_multi_requests            0                       # Number of requests hitting in the snoop filter with multiple (>1) holders of the requested data.
system.membus.snoop_filter.hit_multi_snoops            0                       # Number of snoops hitting in the snoop filter with multiple (>1) holders of the requested data.
system.membus.snoop_filter.hit_single_requests     22518428                       # Number of requests hitting in the snoop filter with a single holder of the requested data.
system.membus.snoop_filter.hit_single_snoops            0                       # Number of snoops hitting in the snoop filter with a single holder of the requested data.
system.membus.snoop_filter.tot_requests      45086591                       # Total number of requests made to the snoop filter.
system.membus.snoop_filter.tot_snoops               0                       # Total number of snoops made to the snoop filter.
system.switch_cpus0.cc_regfile_reads          9300039                       # number of cc regfile reads
system.switch_cpus0.cc_regfile_writes         4425571                       # number of cc regfile writes
system.switch_cpus0.committedInsts          249983279                       # Number of Instructions Simulated
system.switch_cpus0.committedOps            275157118                       # Number of Ops (including micro ops) Simulated
system.switch_cpus0.cpi                      6.465667                       # CPI: Cycles Per Instruction
system.switch_cpus0.cpi_total                6.465667                       # CPI: Total CPI of All Threads
system.switch_cpus0.fp_regfile_reads        455051462                       # number of floating regfile reads
system.switch_cpus0.fp_regfile_writes       206092172                       # number of floating regfile writes
system.switch_cpus0.idleCycles                  10440                       # Total number of cycles that the CPU has spent unscheduled due to idling
system.switch_cpus0.iew.branchMispredicts         6484                       # Number of branch mispredicts detected at execute
system.switch_cpus0.iew.exec_branches         1661568                       # Number of branches executed
system.switch_cpus0.iew.exec_nop                    0                       # number of nop insts executed
system.switch_cpus0.iew.exec_rate            0.222565                       # Inst execution rate
system.switch_cpus0.iew.exec_refs           193664942                       # number of memory reference insts executed
system.switch_cpus0.iew.exec_stores          31308023                       # Number of stores executed
system.switch_cpus0.iew.exec_swp                    0                       # number of swp insts executed
system.switch_cpus0.iew.iewBlockCycles      288212095                       # Number of cycles IEW is blocking
system.switch_cpus0.iew.iewDispLoadInsts     77988480                       # Number of dispatched load instructions
system.switch_cpus0.iew.iewDispNonSpecInsts            0                       # Number of dispatched non-speculative instructions
system.switch_cpus0.iew.iewDispSquashedInsts          343                       # Number of squashed instructions skipped by dispatch
system.switch_cpus0.iew.iewDispStoreInsts     31364682                       # Number of dispatched store instructions
system.switch_cpus0.iew.iewDispatchedInsts    275445922                       # Number of instructions dispatched to IQ
system.switch_cpus0.iew.iewExecLoadInsts    162356919                       # Number of load instructions executed
system.switch_cpus0.iew.iewExecSquashedInsts         1587                       # Number of squashed instructions skipped in execute
system.switch_cpus0.iew.iewExecutedInsts    359734067                       # Number of executed instructions
system.switch_cpus0.iew.iewIQFullEvents       1853581                       # Number of times the IQ has become full, causing a stall
system.switch_cpus0.iew.iewIdleCycles               0                       # Number of cycles IEW is idle
system.switch_cpus0.iew.iewLSQFullEvents    484023081                       # Number of times the LSQ has become full, causing a stall
system.switch_cpus0.iew.iewSquashCycles          7498                       # Number of cycles IEW is squashing
system.switch_cpus0.iew.iewUnblockCycles    486381321                       # Number of cycles IEW is unblocking
system.switch_cpus0.iew.memOrderViolationEvents         2161                       # Number of memory order violations
system.switch_cpus0.iew.predictedNotTakenIncorrect         6090                       # Number of branches that were predicted not taken incorrectly
system.switch_cpus0.iew.predictedTakenIncorrect          394                       # Number of branches that were predicted taken incorrectly
system.switch_cpus0.iew.wb_consumers        377992294                       # num instructions consuming a value
system.switch_cpus0.iew.wb_count            275306061                       # cumulative count of insts written-back
system.switch_cpus0.iew.wb_fanout            0.532371                       # average fanout of values written-back
system.switch_cpus0.iew.wb_producers        201232262                       # num instructions producing a value
system.switch_cpus0.iew.wb_rate              0.170330                       # insts written-back per cycle
system.switch_cpus0.iew.wb_sent             275307025                       # cumulative count of insts sent to commit
system.switch_cpus0.int_regfile_reads       423376086                       # number of integer regfile reads
system.switch_cpus0.int_regfile_writes       36245355                       # number of integer regfile writes
system.switch_cpus0.ipc                      0.154663                       # IPC: Instructions Per Cycle
system.switch_cpus0.ipc_total                0.154663                       # IPC: Total IPC of All Threads
system.switch_cpus0.iq.FU_type_0::No_OpClass            0      0.00%      0.00% # Type of FU issued
system.switch_cpus0.iq.FU_type_0::IntAlu     40337240     11.21%     11.21% # Type of FU issued
system.switch_cpus0.iq.FU_type_0::IntMult            0      0.00%     11.21% # Type of FU issued
system.switch_cpus0.iq.FU_type_0::IntDiv            0      0.00%     11.21% # Type of FU issued
system.switch_cpus0.iq.FU_type_0::FloatAdd            0      0.00%     11.21% # Type of FU issued
system.switch_cpus0.iq.FU_type_0::FloatCmp            0      0.00%     11.21% # Type of FU issued
system.switch_cpus0.iq.FU_type_0::FloatCvt            0      0.00%     11.21% # Type of FU issued
system.switch_cpus0.iq.FU_type_0::FloatMult            0      0.00%     11.21% # Type of FU issued
system.switch_cpus0.iq.FU_type_0::FloatMultAcc            0      0.00%     11.21% # Type of FU issued
system.switch_cpus0.iq.FU_type_0::FloatDiv            0      0.00%     11.21% # Type of FU issued
system.switch_cpus0.iq.FU_type_0::FloatMisc            0      0.00%     11.21% # Type of FU issued
system.switch_cpus0.iq.FU_type_0::FloatSqrt            0      0.00%     11.21% # Type of FU issued
system.switch_cpus0.iq.FU_type_0::SimdAdd            0      0.00%     11.21% # Type of FU issued
system.switch_cpus0.iq.FU_type_0::SimdAddAcc            0      0.00%     11.21% # Type of FU issued
system.switch_cpus0.iq.FU_type_0::SimdAlu        37196      0.01%     11.22% # Type of FU issued
system.switch_cpus0.iq.FU_type_0::SimdCmp            0      0.00%     11.22% # Type of FU issued
system.switch_cpus0.iq.FU_type_0::SimdCvt            0      0.00%     11.22% # Type of FU issued
system.switch_cpus0.iq.FU_type_0::SimdMisc            0      0.00%     11.22% # Type of FU issued
system.switch_cpus0.iq.FU_type_0::SimdMult            0      0.00%     11.22% # Type of FU issued
system.switch_cpus0.iq.FU_type_0::SimdMultAcc            0      0.00%     11.22% # Type of FU issued
system.switch_cpus0.iq.FU_type_0::SimdShift            0      0.00%     11.22% # Type of FU issued
system.switch_cpus0.iq.FU_type_0::SimdShiftAcc            0      0.00%     11.22% # Type of FU issued
system.switch_cpus0.iq.FU_type_0::SimdDiv            0      0.00%     11.22% # Type of FU issued
system.switch_cpus0.iq.FU_type_0::SimdSqrt            0      0.00%     11.22% # Type of FU issued
system.switch_cpus0.iq.FU_type_0::SimdFloatAdd     77275717     21.48%     32.70% # Type of FU issued
system.switch_cpus0.iq.FU_type_0::SimdFloatAlu            0      0.00%     32.70% # Type of FU issued
system.switch_cpus0.iq.FU_type_0::SimdFloatCmp            0      0.00%     32.70% # Type of FU issued
system.switch_cpus0.iq.FU_type_0::SimdFloatCvt            0      0.00%     32.70% # Type of FU issued
system.switch_cpus0.iq.FU_type_0::SimdFloatDiv      1488285      0.41%     33.12% # Type of FU issued
system.switch_cpus0.iq.FU_type_0::SimdFloatMisc            0      0.00%     33.12% # Type of FU issued
system.switch_cpus0.iq.FU_type_0::SimdFloatMult     46931074     13.05%     46.16% # Type of FU issued
system.switch_cpus0.iq.FU_type_0::SimdFloatMultAcc            0      0.00%     46.16% # Type of FU issued
system.switch_cpus0.iq.FU_type_0::SimdFloatSqrt            0      0.00%     46.16% # Type of FU issued
system.switch_cpus0.iq.FU_type_0::SimdReduceAdd            0      0.00%     46.16% # Type of FU issued
system.switch_cpus0.iq.FU_type_0::SimdReduceAlu            0      0.00%     46.16% # Type of FU issued
system.switch_cpus0.iq.FU_type_0::SimdReduceCmp            0      0.00%     46.16% # Type of FU issued
system.switch_cpus0.iq.FU_type_0::SimdFloatReduceAdd            0      0.00%     46.16% # Type of FU issued
system.switch_cpus0.iq.FU_type_0::SimdFloatReduceCmp            0      0.00%     46.16% # Type of FU issued
system.switch_cpus0.iq.FU_type_0::SimdAes            0      0.00%     46.16% # Type of FU issued
system.switch_cpus0.iq.FU_type_0::SimdAesMix            0      0.00%     46.16% # Type of FU issued
system.switch_cpus0.iq.FU_type_0::SimdSha1Hash            0      0.00%     46.16% # Type of FU issued
system.switch_cpus0.iq.FU_type_0::SimdSha1Hash2            0      0.00%     46.16% # Type of FU issued
system.switch_cpus0.iq.FU_type_0::SimdSha256Hash            0      0.00%     46.16% # Type of FU issued
system.switch_cpus0.iq.FU_type_0::SimdSha256Hash2            0      0.00%     46.16% # Type of FU issued
system.switch_cpus0.iq.FU_type_0::SimdShaSigma2            0      0.00%     46.16% # Type of FU issued
system.switch_cpus0.iq.FU_type_0::SimdShaSigma3            0      0.00%     46.16% # Type of FU issued
system.switch_cpus0.iq.FU_type_0::SimdPredAlu            0      0.00%     46.16% # Type of FU issued
system.switch_cpus0.iq.FU_type_0::MemRead     54542212     15.16%     61.33% # Type of FU issued
system.switch_cpus0.iq.FU_type_0::MemWrite       129215      0.04%     61.36% # Type of FU issued
system.switch_cpus0.iq.FU_type_0::FloatMemRead    107815753     29.97%     91.33% # Type of FU issued
system.switch_cpus0.iq.FU_type_0::FloatMemWrite     31178962      8.67%    100.00% # Type of FU issued
system.switch_cpus0.iq.FU_type_0::IprAccess            0      0.00%    100.00% # Type of FU issued
system.switch_cpus0.iq.FU_type_0::InstPrefetch            0      0.00%    100.00% # Type of FU issued
system.switch_cpus0.iq.FU_type_0::total     359735654                       # Type of FU issued
system.switch_cpus0.iq.fp_alu_accesses      322624275                       # Number of floating point alu accesses
system.switch_cpus0.iq.fp_inst_queue_reads    610708105                       # Number of floating instruction queue reads
system.switch_cpus0.iq.fp_inst_queue_wakeup_accesses    237270516                       # Number of floating instruction queue wakeup accesses
system.switch_cpus0.iq.fp_inst_queue_writes    237575636                       # Number of floating instruction queue writes
system.switch_cpus0.iq.fu_busy_cnt           45152649                       # FU busy when requested
system.switch_cpus0.iq.fu_busy_rate          0.125516                       # FU busy rate (busy events/executed inst)
system.switch_cpus0.iq.fu_full::No_OpClass            0      0.00%      0.00% # attempts to use FU when none available
system.switch_cpus0.iq.fu_full::IntAlu         490685      1.09%      1.09% # attempts to use FU when none available
system.switch_cpus0.iq.fu_full::IntMult             0      0.00%      1.09% # attempts to use FU when none available
system.switch_cpus0.iq.fu_full::IntDiv              0      0.00%      1.09% # attempts to use FU when none available
system.switch_cpus0.iq.fu_full::FloatAdd            0      0.00%      1.09% # attempts to use FU when none available
system.switch_cpus0.iq.fu_full::FloatCmp            0      0.00%      1.09% # attempts to use FU when none available
system.switch_cpus0.iq.fu_full::FloatCvt            0      0.00%      1.09% # attempts to use FU when none available
system.switch_cpus0.iq.fu_full::FloatMult            0      0.00%      1.09% # attempts to use FU when none available
system.switch_cpus0.iq.fu_full::FloatMultAcc            0      0.00%      1.09% # attempts to use FU when none available
system.switch_cpus0.iq.fu_full::FloatDiv            0      0.00%      1.09% # attempts to use FU when none available
system.switch_cpus0.iq.fu_full::FloatMisc            0      0.00%      1.09% # attempts to use FU when none available
system.switch_cpus0.iq.fu_full::FloatSqrt            0      0.00%      1.09% # attempts to use FU when none available
system.switch_cpus0.iq.fu_full::SimdAdd             0      0.00%      1.09% # attempts to use FU when none available
system.switch_cpus0.iq.fu_full::SimdAddAcc            0      0.00%      1.09% # attempts to use FU when none available
system.switch_cpus0.iq.fu_full::SimdAlu             0      0.00%      1.09% # attempts to use FU when none available
system.switch_cpus0.iq.fu_full::SimdCmp             0      0.00%      1.09% # attempts to use FU when none available
system.switch_cpus0.iq.fu_full::SimdCvt             0      0.00%      1.09% # attempts to use FU when none available
system.switch_cpus0.iq.fu_full::SimdMisc            0      0.00%      1.09% # attempts to use FU when none available
system.switch_cpus0.iq.fu_full::SimdMult            0      0.00%      1.09% # attempts to use FU when none available
system.switch_cpus0.iq.fu_full::SimdMultAcc            0      0.00%      1.09% # attempts to use FU when none available
system.switch_cpus0.iq.fu_full::SimdShift            0      0.00%      1.09% # attempts to use FU when none available
system.switch_cpus0.iq.fu_full::SimdShiftAcc            0      0.00%      1.09% # attempts to use FU when none available
system.switch_cpus0.iq.fu_full::SimdDiv             0      0.00%      1.09% # attempts to use FU when none available
system.switch_cpus0.iq.fu_full::SimdSqrt            0      0.00%      1.09% # attempts to use FU when none available
system.switch_cpus0.iq.fu_full::SimdFloatAdd      5086665     11.27%     12.35% # attempts to use FU when none available
system.switch_cpus0.iq.fu_full::SimdFloatAlu            0      0.00%     12.35% # attempts to use FU when none available
system.switch_cpus0.iq.fu_full::SimdFloatCmp            0      0.00%     12.35% # attempts to use FU when none available
system.switch_cpus0.iq.fu_full::SimdFloatCvt            0      0.00%     12.35% # attempts to use FU when none available
system.switch_cpus0.iq.fu_full::SimdFloatDiv            0      0.00%     12.35% # attempts to use FU when none available
system.switch_cpus0.iq.fu_full::SimdFloatMisc            0      0.00%     12.35% # attempts to use FU when none available
system.switch_cpus0.iq.fu_full::SimdFloatMult      5204023     11.53%     23.88% # attempts to use FU when none available
system.switch_cpus0.iq.fu_full::SimdFloatMultAcc            0      0.00%     23.88% # attempts to use FU when none available
system.switch_cpus0.iq.fu_full::SimdFloatSqrt            0      0.00%     23.88% # attempts to use FU when none available
system.switch_cpus0.iq.fu_full::SimdReduceAdd            0      0.00%     23.88% # attempts to use FU when none available
system.switch_cpus0.iq.fu_full::SimdReduceAlu            0      0.00%     23.88% # attempts to use FU when none available
system.switch_cpus0.iq.fu_full::SimdReduceCmp            0      0.00%     23.88% # attempts to use FU when none available
system.switch_cpus0.iq.fu_full::SimdFloatReduceAdd            0      0.00%     23.88% # attempts to use FU when none available
system.switch_cpus0.iq.fu_full::SimdFloatReduceCmp            0      0.00%     23.88% # attempts to use FU when none available
system.switch_cpus0.iq.fu_full::SimdAes             0      0.00%     23.88% # attempts to use FU when none available
system.switch_cpus0.iq.fu_full::SimdAesMix            0      0.00%     23.88% # attempts to use FU when none available
system.switch_cpus0.iq.fu_full::SimdSha1Hash            0      0.00%     23.88% # attempts to use FU when none available
system.switch_cpus0.iq.fu_full::SimdSha1Hash2            0      0.00%     23.88% # attempts to use FU when none available
system.switch_cpus0.iq.fu_full::SimdSha256Hash            0      0.00%     23.88% # attempts to use FU when none available
system.switch_cpus0.iq.fu_full::SimdSha256Hash2            0      0.00%     23.88% # attempts to use FU when none available
system.switch_cpus0.iq.fu_full::SimdShaSigma2            0      0.00%     23.88% # attempts to use FU when none available
system.switch_cpus0.iq.fu_full::SimdShaSigma3            0      0.00%     23.88% # attempts to use FU when none available
system.switch_cpus0.iq.fu_full::SimdPredAlu            0      0.00%     23.88% # attempts to use FU when none available
system.switch_cpus0.iq.fu_full::MemRead      10587027     23.45%     47.32% # attempts to use FU when none available
system.switch_cpus0.iq.fu_full::MemWrite        24949      0.06%     47.38% # attempts to use FU when none available
system.switch_cpus0.iq.fu_full::FloatMemRead     21953467     48.62%     96.00% # attempts to use FU when none available
system.switch_cpus0.iq.fu_full::FloatMemWrite      1805833      4.00%    100.00% # attempts to use FU when none available
system.switch_cpus0.iq.fu_full::IprAccess            0      0.00%    100.00% # attempts to use FU when none available
system.switch_cpus0.iq.fu_full::InstPrefetch            0      0.00%    100.00% # attempts to use FU when none available
system.switch_cpus0.iq.int_alu_accesses      82264028                       # Number of integer alu accesses
system.switch_cpus0.iq.int_inst_queue_reads   1770214566                       # Number of integer instruction queue reads
system.switch_cpus0.iq.int_inst_queue_wakeup_accesses     38035545                       # Number of integer instruction queue wakeup accesses
system.switch_cpus0.iq.int_inst_queue_writes     38161158                       # Number of integer instruction queue writes
system.switch_cpus0.iq.iqInstsAdded         275445922                       # Number of instructions added to the IQ (excludes non-spec)
system.switch_cpus0.iq.iqInstsIssued        359735654                       # Number of instructions issued
system.switch_cpus0.iq.iqSquashedInstsExamined       288711                       # Number of squashed instructions iterated over during squash; mainly for profiling
system.switch_cpus0.iq.iqSquashedInstsIssued          398                       # Number of squashed instructions issued
system.switch_cpus0.iq.iqSquashedOperandsExamined       468325                       # Number of squashed operands that are examined and possibly removed from graph
system.switch_cpus0.iq.issued_per_cycle::samples   1616298316                       # Number of insts issued each cycle
system.switch_cpus0.iq.issued_per_cycle::mean     0.222568                       # Number of insts issued each cycle
system.switch_cpus0.iq.issued_per_cycle::stdev     1.040284                       # Number of insts issued each cycle
system.switch_cpus0.iq.issued_per_cycle::underflows            0      0.00%      0.00% # Number of insts issued each cycle
system.switch_cpus0.iq.issued_per_cycle::0   1525642918     94.39%     94.39% # Number of insts issued each cycle
system.switch_cpus0.iq.issued_per_cycle::1     14879301      0.92%     95.31% # Number of insts issued each cycle
system.switch_cpus0.iq.issued_per_cycle::2     11736778      0.73%     96.04% # Number of insts issued each cycle
system.switch_cpus0.iq.issued_per_cycle::3      6935681      0.43%     96.47% # Number of insts issued each cycle
system.switch_cpus0.iq.issued_per_cycle::4     27642199      1.71%     98.18% # Number of insts issued each cycle
system.switch_cpus0.iq.issued_per_cycle::5      7902691      0.49%     98.67% # Number of insts issued each cycle
system.switch_cpus0.iq.issued_per_cycle::6      7503775      0.46%     99.13% # Number of insts issued each cycle
system.switch_cpus0.iq.issued_per_cycle::7      6968931      0.43%     99.56% # Number of insts issued each cycle
system.switch_cpus0.iq.issued_per_cycle::8      7086042      0.44%    100.00% # Number of insts issued each cycle
system.switch_cpus0.iq.issued_per_cycle::overflows            0      0.00%    100.00% # Number of insts issued each cycle
system.switch_cpus0.iq.issued_per_cycle::min_value            0                       # Number of insts issued each cycle
system.switch_cpus0.iq.issued_per_cycle::max_value            8                       # Number of insts issued each cycle
system.switch_cpus0.iq.issued_per_cycle::total   1616298316                       # Number of insts issued each cycle
system.switch_cpus0.iq.rate                  0.222566                       # Inst issue rate
system.switch_cpus0.iq.vec_alu_accesses             0                       # Number of vector alu accesses
system.switch_cpus0.iq.vec_inst_queue_reads            0                       # Number of vector instruction queue reads
system.switch_cpus0.iq.vec_inst_queue_wakeup_accesses            0                       # Number of vector instruction queue wakeup accesses
system.switch_cpus0.iq.vec_inst_queue_writes            0                       # Number of vector instruction queue writes
system.switch_cpus0.memDep0.conflictingLoads      2704235                       # Number of conflicting loads.
system.switch_cpus0.memDep0.conflictingStores       991495                       # Number of conflicting stores.
system.switch_cpus0.memDep0.insertedLoads     77988480                       # Number of loads inserted to the mem dependence unit.
system.switch_cpus0.memDep0.insertedStores     31364682                       # Number of stores inserted to the mem dependence unit.
system.switch_cpus0.misc_regfile_reads      202301432                       # number of misc regfile reads
system.switch_cpus0.misc_regfile_writes             1                       # number of misc regfile writes
system.switch_cpus0.numCycles              1616308756                       # number of cpu cycles simulated
system.switch_cpus0.numWorkItemsCompleted            0                       # number of work items this cpu completed
system.switch_cpus0.numWorkItemsStarted             0                       # number of work items this cpu started
system.switch_cpus0.timesIdled                     37                       # Number of times that the entire CPU went into an idle state and unscheduled itself
system.switch_cpus1.cc_regfile_reads          9294856                       # number of cc regfile reads
system.switch_cpus1.cc_regfile_writes         4423075                       # number of cc regfile writes
system.switch_cpus1.committedInsts          249838265                       # Number of Instructions Simulated
system.switch_cpus1.committedOps            274997711                       # Number of Ops (including micro ops) Simulated
system.switch_cpus1.cpi                      6.469420                       # CPI: Cycles Per Instruction
system.switch_cpus1.cpi_total                6.469420                       # CPI: Total CPI of All Threads
system.switch_cpus1.fp_regfile_reads        454784834                       # number of floating regfile reads
system.switch_cpus1.fp_regfile_writes       205972116                       # number of floating regfile writes
system.switch_cpus1.idleCycles                  11547                       # Total number of cycles that the CPU has spent unscheduled due to idling
system.switch_cpus1.iew.branchMispredicts         6482                       # Number of branch mispredicts detected at execute
system.switch_cpus1.iew.exec_branches         1660658                       # Number of branches executed
system.switch_cpus1.iew.exec_nop                    0                       # number of nop insts executed
system.switch_cpus1.iew.exec_rate            0.221541                       # Inst execution rate
system.switch_cpus1.iew.exec_refs           192107023                       # number of memory reference insts executed
system.switch_cpus1.iew.exec_stores          31290336                       # Number of stores executed
system.switch_cpus1.iew.exec_swp                    0                       # number of swp insts executed
system.switch_cpus1.iew.iewBlockCycles      277909685                       # Number of cycles IEW is blocking
system.switch_cpus1.iew.iewDispLoadInsts     77943427                       # Number of dispatched load instructions
system.switch_cpus1.iew.iewDispNonSpecInsts            0                       # Number of dispatched non-speculative instructions
system.switch_cpus1.iew.iewDispSquashedInsts          349                       # Number of squashed instructions skipped by dispatch
system.switch_cpus1.iew.iewDispStoreInsts     31346602                       # Number of dispatched store instructions
system.switch_cpus1.iew.iewDispatchedInsts    275285932                       # Number of instructions dispatched to IQ
system.switch_cpus1.iew.iewExecLoadInsts    160816687                       # Number of load instructions executed
system.switch_cpus1.iew.iewExecSquashedInsts         1648                       # Number of squashed instructions skipped in execute
system.switch_cpus1.iew.iewExecutedInsts    358079152                       # Number of executed instructions
system.switch_cpus1.iew.iewIQFullEvents       1812766                       # Number of times the IQ has become full, causing a stall
system.switch_cpus1.iew.iewIdleCycles               0                       # Number of cycles IEW is idle
system.switch_cpus1.iew.iewLSQFullEvents    481088769                       # Number of times the LSQ has become full, causing a stall
system.switch_cpus1.iew.iewSquashCycles          7509                       # Number of cycles IEW is squashing
system.switch_cpus1.iew.iewUnblockCycles    483401774                       # Number of cycles IEW is unblocking
system.switch_cpus1.iew.memOrderViolationEvents         2160                       # Number of memory order violations
system.switch_cpus1.iew.predictedNotTakenIncorrect         6088                       # Number of branches that were predicted not taken incorrectly
system.switch_cpus1.iew.predictedTakenIncorrect          394                       # Number of branches that were predicted taken incorrectly
system.switch_cpus1.iew.wb_consumers        377870094                       # num instructions consuming a value
system.switch_cpus1.iew.wb_count            275146453                       # cumulative count of insts written-back
system.switch_cpus1.iew.wb_fanout            0.532228                       # average fanout of values written-back
system.switch_cpus1.iew.wb_producers        201112927                       # num instructions producing a value
system.switch_cpus1.iew.wb_rate              0.170231                       # insts written-back per cycle
system.switch_cpus1.iew.wb_sent             275147426                       # cumulative count of insts sent to commit
system.switch_cpus1.int_regfile_reads       420239559                       # number of integer regfile reads
system.switch_cpus1.int_regfile_writes       36224409                       # number of integer regfile writes
system.switch_cpus1.ipc                      0.154573                       # IPC: Instructions Per Cycle
system.switch_cpus1.ipc_total                0.154573                       # IPC: Total IPC of All Threads
system.switch_cpus1.iq.FU_type_0::No_OpClass            0      0.00%      0.00% # Type of FU issued
system.switch_cpus1.iq.FU_type_0::IntAlu     40314073     11.26%     11.26% # Type of FU issued
system.switch_cpus1.iq.FU_type_0::IntMult            0      0.00%     11.26% # Type of FU issued
system.switch_cpus1.iq.FU_type_0::IntDiv            0      0.00%     11.26% # Type of FU issued
system.switch_cpus1.iq.FU_type_0::FloatAdd            0      0.00%     11.26% # Type of FU issued
system.switch_cpus1.iq.FU_type_0::FloatCmp            0      0.00%     11.26% # Type of FU issued
system.switch_cpus1.iq.FU_type_0::FloatCvt            0      0.00%     11.26% # Type of FU issued
system.switch_cpus1.iq.FU_type_0::FloatMult            0      0.00%     11.26% # Type of FU issued
system.switch_cpus1.iq.FU_type_0::FloatMultAcc            0      0.00%     11.26% # Type of FU issued
system.switch_cpus1.iq.FU_type_0::FloatDiv            0      0.00%     11.26% # Type of FU issued
system.switch_cpus1.iq.FU_type_0::FloatMisc            0      0.00%     11.26% # Type of FU issued
system.switch_cpus1.iq.FU_type_0::FloatSqrt            0      0.00%     11.26% # Type of FU issued
system.switch_cpus1.iq.FU_type_0::SimdAdd            0      0.00%     11.26% # Type of FU issued
system.switch_cpus1.iq.FU_type_0::SimdAddAcc            0      0.00%     11.26% # Type of FU issued
system.switch_cpus1.iq.FU_type_0::SimdAlu        37212      0.01%     11.27% # Type of FU issued
system.switch_cpus1.iq.FU_type_0::SimdCmp            0      0.00%     11.27% # Type of FU issued
system.switch_cpus1.iq.FU_type_0::SimdCvt            0      0.00%     11.27% # Type of FU issued
system.switch_cpus1.iq.FU_type_0::SimdMisc            0      0.00%     11.27% # Type of FU issued
system.switch_cpus1.iq.FU_type_0::SimdMult            0      0.00%     11.27% # Type of FU issued
system.switch_cpus1.iq.FU_type_0::SimdMultAcc            0      0.00%     11.27% # Type of FU issued
system.switch_cpus1.iq.FU_type_0::SimdShift            0      0.00%     11.27% # Type of FU issued
system.switch_cpus1.iq.FU_type_0::SimdShiftAcc            0      0.00%     11.27% # Type of FU issued
system.switch_cpus1.iq.FU_type_0::SimdDiv            0      0.00%     11.27% # Type of FU issued
system.switch_cpus1.iq.FU_type_0::SimdSqrt            0      0.00%     11.27% # Type of FU issued
system.switch_cpus1.iq.FU_type_0::SimdFloatAdd     77230259     21.57%     32.84% # Type of FU issued
system.switch_cpus1.iq.FU_type_0::SimdFloatAlu            0      0.00%     32.84% # Type of FU issued
system.switch_cpus1.iq.FU_type_0::SimdFloatCmp            0      0.00%     32.84% # Type of FU issued
system.switch_cpus1.iq.FU_type_0::SimdFloatCvt            0      0.00%     32.84% # Type of FU issued
system.switch_cpus1.iq.FU_type_0::SimdFloatDiv      1487388      0.42%     33.25% # Type of FU issued
system.switch_cpus1.iq.FU_type_0::SimdFloatMisc            0      0.00%     33.25% # Type of FU issued
system.switch_cpus1.iq.FU_type_0::SimdFloatMult     46903593     13.10%     46.35% # Type of FU issued
system.switch_cpus1.iq.FU_type_0::SimdFloatMultAcc            0      0.00%     46.35% # Type of FU issued
system.switch_cpus1.iq.FU_type_0::SimdFloatSqrt            0      0.00%     46.35% # Type of FU issued
system.switch_cpus1.iq.FU_type_0::SimdReduceAdd            0      0.00%     46.35% # Type of FU issued
system.switch_cpus1.iq.FU_type_0::SimdReduceAlu            0      0.00%     46.35% # Type of FU issued
system.switch_cpus1.iq.FU_type_0::SimdReduceCmp            0      0.00%     46.35% # Type of FU issued
system.switch_cpus1.iq.FU_type_0::SimdFloatReduceAdd            0      0.00%     46.35% # Type of FU issued
system.switch_cpus1.iq.FU_type_0::SimdFloatReduceCmp            0      0.00%     46.35% # Type of FU issued
system.switch_cpus1.iq.FU_type_0::SimdAes            0      0.00%     46.35% # Type of FU issued
system.switch_cpus1.iq.FU_type_0::SimdAesMix            0      0.00%     46.35% # Type of FU issued
system.switch_cpus1.iq.FU_type_0::SimdSha1Hash            0      0.00%     46.35% # Type of FU issued
system.switch_cpus1.iq.FU_type_0::SimdSha1Hash2            0      0.00%     46.35% # Type of FU issued
system.switch_cpus1.iq.FU_type_0::SimdSha256Hash            0      0.00%     46.35% # Type of FU issued
system.switch_cpus1.iq.FU_type_0::SimdSha256Hash2            0      0.00%     46.35% # Type of FU issued
system.switch_cpus1.iq.FU_type_0::SimdShaSigma2            0      0.00%     46.35% # Type of FU issued
system.switch_cpus1.iq.FU_type_0::SimdShaSigma3            0      0.00%     46.35% # Type of FU issued
system.switch_cpus1.iq.FU_type_0::SimdPredAlu            0      0.00%     46.35% # Type of FU issued
system.switch_cpus1.iq.FU_type_0::MemRead     53926152     15.06%     61.41% # Type of FU issued
system.switch_cpus1.iq.FU_type_0::MemWrite       129174      0.04%     61.45% # Type of FU issued
system.switch_cpus1.iq.FU_type_0::FloatMemRead    106891673     29.85%     91.30% # Type of FU issued
system.switch_cpus1.iq.FU_type_0::FloatMemWrite     31161276      8.70%    100.00% # Type of FU issued
system.switch_cpus1.iq.FU_type_0::IprAccess            0      0.00%    100.00% # Type of FU issued
system.switch_cpus1.iq.FU_type_0::InstPrefetch            0      0.00%    100.00% # Type of FU issued
system.switch_cpus1.iq.FU_type_0::total     358080800                       # Type of FU issued
[...]
system.switch_cpus3.commit.numCommittedDist::mean     0.170255                       # Number of insts commited each cycle
system.switch_cpus3.commit.numCommittedDist::stdev     1.040659                       # Number of insts commited each cycle
system.switch_cpus3.commit.numCommittedDist::underflows            0      0.00%      0.00% # Number of insts commited each cycle
system.switch_cpus3.commit.numCommittedDist::0   1553416475     96.11%     96.11% # Number of insts commited each cycle
system.switch_cpus3.commit.numCommittedDist::1     18745591      1.16%     97.27% # Number of insts commited each cycle
system.switch_cpus3.commit.numCommittedDist::2      8024439      0.50%     97.77% # Number of insts commited each cycle
system.switch_cpus3.commit.numCommittedDist::3      5603118      0.35%     98.12% # Number of insts commited each cycle
system.switch_cpus3.commit.numCommittedDist::4      3016935      0.19%     98.30% # Number of insts commited each cycle
system.switch_cpus3.commit.numCommittedDist::5      1652107      0.10%     98.40% # Number of insts commited each cycle
system.switch_cpus3.commit.numCommittedDist::6      1156412      0.07%     98.48% # Number of insts commited each cycle
system.switch_cpus3.commit.numCommittedDist::7       815570      0.05%     98.53% # Number of insts commited each cycle
system.switch_cpus3.commit.numCommittedDist::8     23824492      1.47%    100.00% # Number of insts commited each cycle
system.switch_cpus3.commit.numCommittedDist::overflows            0      0.00%    100.00% # Number of insts commited each cycle
system.switch_cpus3.commit.numCommittedDist::min_value            0                       # Number of insts commited each cycle
system.switch_cpus3.commit.numCommittedDist::max_value            8                       # Number of insts commited each cycle
system.switch_cpus3.commit.numCommittedDist::total   1616255139                       # Number of insts commited each cycle
system.switch_cpus3.commit.instsCommitted    250000000                       # Number of instructions committed
system.switch_cpus3.commit.opsCommitted     275175496                       # Number of ops (including micro ops) committed
system.switch_cpus3.commit.memRefs          109119439                       # Number of memory references committed
system.switch_cpus3.commit.loads             77817089                       # Number of loads committed
system.switch_cpus3.commit.amos                     0                       # Number of atomic instructions committed
system.switch_cpus3.commit.membars                  0                       # Number of memory barriers committed
system.switch_cpus3.commit.branches           1661412                       # Number of branches committed
system.switch_cpus3.commit.vector                   0                       # Number of committed Vector instructions.
system.switch_cpus3.commit.floating         237256004                       # Number of committed floating point instructions.
system.switch_cpus3.commit.integer          126086363                       # Number of committed integer instructions.
system.switch_cpus3.commit.functionCalls            2                       # Number of function calls committed.
system.switch_cpus3.commit.committedInstType_0::No_OpClass            0      0.00%      0.00% # Class of committed instruction
system.switch_cpus3.commit.committedInstType_0::IntAlu     40323396     14.65%     14.65% # Class of committed instruction
system.switch_cpus3.commit.committedInstType_0::IntMult            0      0.00%     14.65% # Class of committed instruction
system.switch_cpus3.commit.committedInstType_0::IntDiv            0      0.00%     14.65% # Class of committed instruction
system.switch_cpus3.commit.committedInstType_0::FloatAdd            0      0.00%     14.65% # Class of committed instruction
system.switch_cpus3.commit.committedInstType_0::FloatCmp            0      0.00%     14.65% # Class of committed instruction
system.switch_cpus3.commit.committedInstType_0::FloatCvt            0      0.00%     14.65% # Class of committed instruction
system.switch_cpus3.commit.committedInstType_0::FloatMult            0      0.00%     14.65% # Class of committed instruction
system.switch_cpus3.commit.committedInstType_0::FloatMultAcc            0      0.00%     14.65% # Class of committed instruction
system.switch_cpus3.commit.committedInstType_0::FloatDiv            0      0.00%     14.65% # Class of committed instruction
system.switch_cpus3.commit.committedInstType_0::FloatMisc            0      0.00%     14.65% # Class of committed instruction
system.switch_cpus3.commit.committedInstType_0::FloatSqrt            0      0.00%     14.65% # Class of committed instruction
system.switch_cpus3.commit.committedInstType_0::SimdAdd            0      0.00%     14.65% # Class of committed instruction
system.switch_cpus3.commit.committedInstType_0::SimdAddAcc            0      0.00%     14.65% # Class of committed instruction
system.switch_cpus3.commit.committedInstType_0::SimdAlu        36864      0.01%     14.67% # Class of committed instruction
system.switch_cpus3.commit.committedInstType_0::SimdCmp            0      0.00%     14.67% # Class of committed instruction
system.switch_cpus3.commit.committedInstType_0::SimdCvt            0      0.00%     14.67% # Class of committed instruction
system.switch_cpus3.commit.committedInstType_0::SimdMisc            0      0.00%     14.67% # Class of committed instruction
system.switch_cpus3.commit.committedInstType_0::SimdMult            0      0.00%     14.67% # Class of committed instruction
system.switch_cpus3.commit.committedInstType_0::SimdMultAcc            0      0.00%     14.67% # Class of committed instruction
system.switch_cpus3.commit.committedInstType_0::SimdShift            0      0.00%     14.67% # Class of committed instruction
system.switch_cpus3.commit.committedInstType_0::SimdShiftAcc            0      0.00%     14.67% # Class of committed instruction
system.switch_cpus3.commit.committedInstType_0::SimdDiv            0      0.00%     14.67% # Class of committed instruction
system.switch_cpus3.commit.committedInstType_0::SimdSqrt            0      0.00%     14.67% # Class of committed instruction
system.switch_cpus3.commit.committedInstType_0::SimdFloatAdd     77273279     28.08%     42.75% # Class of committed instruction
system.switch_cpus3.commit.committedInstType_0::SimdFloatAlu            0      0.00%     42.75% # Class of committed instruction
system.switch_cpus3.commit.committedInstType_0::SimdFloatCmp            0      0.00%     42.75% # Class of committed instruction
system.switch_cpus3.commit.committedInstType_0::SimdFloatCvt            0      0.00%     42.75% # Class of committed instruction
system.switch_cpus3.commit.committedInstType_0::SimdFloatDiv      1488387      0.54%     43.29% # Class of committed instruction
system.switch_cpus3.commit.committedInstType_0::SimdFloatMisc            0      0.00%     43.29% # Class of committed instruction
system.switch_cpus3.commit.committedInstType_0::SimdFloatMult     46934131     17.06%     60.35% # Class of committed instruction
system.switch_cpus3.commit.committedInstType_0::SimdFloatMultAcc            0      0.00%     60.35% # Class of committed instruction
system.switch_cpus3.commit.committedInstType_0::SimdFloatSqrt            0      0.00%     60.35% # Class of committed instruction
system.switch_cpus3.commit.committedInstType_0::SimdReduceAdd            0      0.00%     60.35% # Class of committed instruction
system.switch_cpus3.commit.committedInstType_0::SimdReduceAlu            0      0.00%     60.35% # Class of committed instruction
system.switch_cpus3.commit.committedInstType_0::SimdReduceCmp            0      0.00%     60.35% # Class of committed instruction
system.switch_cpus3.commit.committedInstType_0::SimdFloatReduceAdd            0      0.00%     60.35% # Class of committed instruction
system.switch_cpus3.commit.committedInstType_0::SimdFloatReduceCmp            0      0.00%     60.35% # Class of committed instruction
system.switch_cpus3.commit.committedInstType_0::SimdAes            0      0.00%     60.35% # Class of committed instruction
system.switch_cpus3.commit.committedInstType_0::SimdAesMix            0      0.00%     60.35% # Class of committed instruction
system.switch_cpus3.commit.committedInstType_0::SimdSha1Hash            0      0.00%     60.35% # Class of committed instruction
system.switch_cpus3.commit.committedInstType_0::SimdSha1Hash2            0      0.00%     60.35% # Class of committed instruction
system.switch_cpus3.commit.committedInstType_0::SimdSha256Hash            0      0.00%     60.35% # Class of committed instruction
system.switch_cpus3.commit.committedInstType_0::SimdSha256Hash2            0      0.00%     60.35% # Class of committed instruction
system.switch_cpus3.commit.committedInstType_0::SimdShaSigma2            0      0.00%     60.35% # Class of committed instruction
system.switch_cpus3.commit.committedInstType_0::SimdShaSigma3            0      0.00%     60.35% # Class of committed instruction
system.switch_cpus3.commit.committedInstType_0::SimdPredAlu            0      0.00%     60.35% # Class of committed instruction
system.switch_cpus3.commit.committedInstType_0::MemRead     20823540      7.57%     67.91% # Class of committed instruction
system.switch_cpus3.commit.committedInstType_0::MemWrite       129028      0.05%     67.96% # Class of committed instruction
system.switch_cpus3.commit.committedInstType_0::FloatMemRead     56993549     20.71%     88.67% # Class of committed instruction
system.switch_cpus3.commit.committedInstType_0::FloatMemWrite     31173322     11.33%    100.00% # Class of committed instruction
system.switch_cpus3.commit.committedInstType_0::IprAccess            0      0.00%    100.00% # Class of committed instruction
system.switch_cpus3.commit.committedInstType_0::InstPrefetch            0      0.00%    100.00% # Class of committed instruction
system.switch_cpus3.commit.committedInstType_0::total    275175496                       # Class of committed instruction
system.switch_cpus3.commit.commitEligibleSamples     23824492                       # number cycles where commit BW limit reached
system.switch_cpus3.decode.idleCycles         5100120                       # Number of cycles decode is idle
system.switch_cpus3.decode.blockedCycles   1576509317                       # Number of cycles decode is blocked
system.switch_cpus3.decode.runCycles         23070494                       # Number of cycles decode is running
system.switch_cpus3.decode.unblockCycles     11609203                       # Number of cycles decode is unblocking
system.switch_cpus3.decode.squashCycles          7505                       # Number of cycles decode is squashing
system.switch_cpus3.decode.branchResolved       608553                       # Number of times decode resolved a  branch
system.switch_cpus3.decode.branchMispred            5                       # Number of times decode detected a branch misprediction
system.switch_cpus3.decode.decodedInsts     275513329                       # Number of instructions handled by decode
system.switch_cpus3.decode.squashedInsts           25                       # Number of squashed instructions handled by decode
system.switch_cpus3.dtb.rdAccesses           77992004                       # TLB accesses on read requests
system.switch_cpus3.dtb.wrAccesses           31310358                       # TLB accesses on write requests
system.switch_cpus3.dtb.rdMisses                83151                       # TLB misses on read requests
system.switch_cpus3.dtb.wrMisses                 5069                       # TLB misses on write requests
system.switch_cpus3.dtb.walker.power_state.pwrStateResidencyTicks::UNDEFINED 14257283421357                       # Cumulative time (in ticks) in various power states
system.switch_cpus3.fetch.icacheStallCycles        15341                       # Number of cycles fetch is stalled on an Icache miss
system.switch_cpus3.fetch.insts             250620201                       # Number of instructions fetch has processed
system.switch_cpus3.fetch.branches            1668033                       # Number of branches that fetch encountered
system.switch_cpus3.fetch.predictedBranches       614747                       # Number of branches that fetch has predicted taken
system.switch_cpus3.fetch.cycles           1616273824                       # Number of cycles fetch has run and was not squashing or blocked
system.switch_cpus3.fetch.squashCycles          15020                       # Number of cycles fetch has spent squashing
system.switch_cpus3.fetch.cacheLines         21912931                       # Number of cache lines fetched
system.switch_cpus3.fetch.icacheSquashes            6                       # Number of outstanding Icache misses that were squashed
system.switch_cpus3.fetch.nisnDist::samples   1616296675                       # Number of instructions fetched each cycle (Total)
system.switch_cpus3.fetch.nisnDist::mean     0.170669                       # Number of instructions fetched each cycle (Total)
system.switch_cpus3.fetch.nisnDist::stdev     1.063870                       # Number of instructions fetched each cycle (Total)
system.switch_cpus3.fetch.nisnDist::underflows            0      0.00%      0.00% # Number of instructions fetched each cycle (Total)
system.switch_cpus3.fetch.nisnDist::0      1569724072     97.12%     97.12% # Number of instructions fetched each cycle (Total)
system.switch_cpus3.fetch.nisnDist::1         2873673      0.18%     97.30% # Number of instructions fetched each cycle (Total)
system.switch_cpus3.fetch.nisnDist::2         2014429      0.12%     97.42% # Number of instructions fetched each cycle (Total)
system.switch_cpus3.fetch.nisnDist::3         2934972      0.18%     97.60% # Number of instructions fetched each cycle (Total)
system.switch_cpus3.fetch.nisnDist::4         5316398      0.33%     97.93% # Number of instructions fetched each cycle (Total)
system.switch_cpus3.fetch.nisnDist::5         5936251      0.37%     98.30% # Number of instructions fetched each cycle (Total)
system.switch_cpus3.fetch.nisnDist::6         3741382      0.23%     98.53% # Number of instructions fetched each cycle (Total)
system.switch_cpus3.fetch.nisnDist::7         3294838      0.20%     98.73% # Number of instructions fetched each cycle (Total)
system.switch_cpus3.fetch.nisnDist::8        20460660      1.27%    100.00% # Number of instructions fetched each cycle (Total)
system.switch_cpus3.fetch.nisnDist::overflows            0      0.00%    100.00% # Number of instructions fetched each cycle (Total)
system.switch_cpus3.fetch.nisnDist::min_value            0                       # Number of instructions fetched each cycle (Total)
system.switch_cpus3.fetch.nisnDist::max_value            8                       # Number of instructions fetched each cycle (Total)
system.switch_cpus3.fetch.nisnDist::total   1616296675                       # Number of instructions fetched each cycle (Total)
system.switch_cpus3.fetch.branchRate         0.001032                       # Number of branch fetches per cycle
system.switch_cpus3.fetch.rate               0.155057                       # Number of inst fetches per cycle
system.switch_cpus3.itb.rdAccesses                  0                       # TLB accesses on read requests
system.switch_cpus3.itb.wrAccesses           21912931                       # TLB accesses on write requests
system.switch_cpus3.itb.rdMisses                    0                       # TLB misses on read requests
system.switch_cpus3.itb.wrMisses                    4                       # TLB misses on write requests
system.switch_cpus3.itb.walker.power_state.pwrStateResidencyTicks::UNDEFINED 14257283421357                       # Cumulative time (in ticks) in various power states
system.switch_cpus3.lsq0.forwLoads           12539780                       # Number of loads that had data forwarded from stores
system.switch_cpus3.lsq0.squashedLoads         176617                       # Number of loads squashed
system.switch_cpus3.lsq0.ignoredResponses           13                       # Number of memory responses ignored because the instruction is squashed
system.switch_cpus3.lsq0.memOrderViolation         2153                       # Number of memory ordering violations
system.switch_cpus3.lsq0.squashedStores         64565                       # Number of stores squashed
system.switch_cpus3.lsq0.rescheduledLoads            0                       # Number of loads that were rescheduled
system.switch_cpus3.lsq0.blockedByCache       5318185                       # Number of times an access to memory failed due to the cache being blocked
system.switch_cpus3.power_state.pwrStateResidencyTicks::OFF 538230826071                       # Cumulative time (in ticks) in various power states
system.switch_cpus3.rename.squashCycles          7505                       # Number of cycles rename is squashing
system.switch_cpus3.rename.idleCycles        10164059                       # Number of cycles rename is idle
system.switch_cpus3.rename.blockCycles      782704308                       # Number of cycles rename is blocking
system.switch_cpus3.rename.serializeStallCycles            0                       # count of cycles rename stalledfor serializing inst
system.switch_cpus3.rename.runCycles         29135493                       # Number of cycles rename is running
system.switch_cpus3.rename.unblockCycles    794285274                       # Number of cycles rename is unblocking
system.switch_cpus3.rename.renamedInsts     275474873                       # Number of instructions processed by rename
system.switch_cpus3.rename.IQFullEvents      41909093                       # Number of times rename has blocked due to IQ full
system.switch_cpus3.rename.LQFullEvents     559668258                       # Number of times rename has blocked due to LQ full
system.switch_cpus3.rename.SQFullEvents     224549002                       # Number of times rename has blocked due to SQ full
system.switch_cpus3.rename.renamedOperands    246871498                       # Number of destination operands rename has renamed
system.switch_cpus3.rename.lookups          837300198                       # Number of register rename lookups that rename has made
system.switch_cpus3.rename.intLookups       254779375                       # Number of integer rename lookups
system.switch_cpus3.rename.fpLookups        455217697                       # Number of floating rename lookups
system.switch_cpus3.rename.committedMaps    246626099                       # Number of HB maps that are committed
system.switch_cpus3.rename.undoneMaps          245355                       # Number of HB maps that are undone due to squashing
system.switch_cpus3.rename.serializing              0                       # count of serializing insts renamed
system.switch_cpus3.rename.tempSerializing            0                       # count of temporary serializing insts renamed
system.switch_cpus3.rename.skidInsts         66556652                       # count of insts added to the skid buffer
system.switch_cpus3.rob.reads              1867897545                       # The number of ROB reads
system.switch_cpus3.rob.writes              550975374                       # The number of ROB writes
system.switch_cpus3.thread0.numInsts        250000000                       # Number of Instructions committed
system.switch_cpus3.thread0.numOps          275175496                       # Number of Ops committed
system.switch_cpus3.thread0.numMemRefs              0                       # Number of Memory References
system.voltage_domain.voltage                       1                       # Voltage in Volts

---------- End Simulation Statistics   ----------
