
---------- Begin Simulation Statistics ----------
final_tick                               14978612499561                       # Number of ticks from beginning of simulation (restored from checkpoints and never reset)
host_inst_rate                                  89457                       # Simulator instruction rate (inst/s)
host_mem_usage                               17296932                       # Number of bytes of host memory used
host_op_rate                                   155343                       # Simulator op (including micro ops) rate (op/s)
host_seconds                                  8160.44                       # Real time elapsed on the host
host_tick_rate                                3451575                       # Simulator tick rate (ticks/s)
sim_freq                                 1000000000000                       # Frequency of simulated ticks
sim_insts                                   730009999                       # Number of instructions simulated
sim_ops                                    1267666699                       # Number of ops (including micro ops) simulated
sim_seconds                                  0.028166                       # Number of seconds simulated
sim_ticks                                 28166380758                       # Number of ticks simulated
system.cpu0.Branches                                2                       # Number of branches fetched
system.cpu0.committedInsts                         15                       # Number of instructions committed
system.cpu0.committedOps                           24                       # Number of ops (including micro ops) committed
system.cpu0.idle_fraction                           0                       # Percentage of idle cycles
system.cpu0.l2bus.snoop_filter.hit_multi_requests            0                       # Number of requests hitting in the snoop filter with multiple (>1) holders of the requested data.
system.cpu0.l2bus.snoop_filter.hit_multi_snoops            0                       # Number of snoops hitting in the snoop filter with multiple (>1) holders of the requested data.
system.cpu0.l2bus.snoop_filter.hit_single_requests            1                       # Number of requests hitting in the snoop filter with a single holder of the requested data.
system.cpu0.l2bus.snoop_filter.hit_single_snoops            0                       # Number of snoops hitting in the snoop filter with a single holder of the requested data.
system.cpu0.l2bus.snoop_filter.tot_requests          561                       # Total number of requests made to the snoop filter.
system.cpu0.l2bus.snoop_filter.tot_snoops            0                       # Total number of snoops made to the snoop filter.
system.cpu0.mmucache.mmubus.snoop_filter.hit_multi_requests            0                       # Number of requests hitting in the snoop filter with multiple (>1) holders of the requested data.
system.cpu0.mmucache.mmubus.snoop_filter.hit_multi_snoops            0                       # Number of snoops hitting in the snoop filter with multiple (>1) holders of the requested data.
system.cpu0.mmucache.mmubus.snoop_filter.hit_single_requests            0                       # Number of requests hitting in the snoop filter with a single holder of the requested data.
system.cpu0.mmucache.mmubus.snoop_filter.hit_single_snoops            0                       # Number of snoops hitting in the snoop filter with a single holder of the requested data.
system.cpu0.mmucache.mmubus.snoop_filter.tot_requests            0                       # Total number of requests made to the snoop filter.
system.cpu0.mmucache.mmubus.snoop_filter.tot_snoops            0                       # Total number of snoops made to the snoop filter.
system.cpu0.not_idle_fraction                       1                       # Percentage of non-idle cycles
system.cpu0.numCycles                              30                       # number of cpu cycles simulated
system.cpu0.numWorkItemsCompleted                   0                       # number of work items this cpu completed
system.cpu0.numWorkItemsStarted                     0                       # number of work items this cpu started
system.cpu0.num_busy_cycles                        30                       # Number of busy cycles
system.cpu0.num_cc_register_reads                  12                       # number of times the CC registers were read
system.cpu0.num_cc_register_writes                 10                       # number of times the CC registers were written
system.cpu0.num_conditional_control_insts            2                       # number of instructions that are conditional controls
system.cpu0.num_fp_alu_accesses                     0                       # Number of float alu accesses
system.cpu0.num_fp_insts                            0                       # number of float instructions
system.cpu0.num_fp_register_reads                   0                       # number of times the floating registers were read
system.cpu0.num_fp_register_writes                  0                       # number of times the floating registers were written
system.cpu0.num_func_calls                          0                       # number of times a function call or return occured
system.cpu0.num_idle_cycles                         0                       # Number of idle cycles
system.cpu0.num_int_alu_accesses                   23                       # Number of integer alu accesses
system.cpu0.num_int_insts                          23                       # number of integer instructions
system.cpu0.num_int_register_reads                 50                       # number of times the integer registers were read
system.cpu0.num_int_register_writes                19                       # number of times the integer registers were written
system.cpu0.num_load_insts                          8                       # Number of load instructions
system.cpu0.num_mem_refs                           10                       # number of memory refs
system.cpu0.num_store_insts                         2                       # Number of store instructions
system.cpu0.num_vec_alu_accesses                    0                       # Number of vector alu accesses
system.cpu0.num_vec_insts                           0                       # number of vector instructions
system.cpu0.num_vec_register_reads                  0                       # number of times the vector registers were read
system.cpu0.num_vec_register_writes                 0                       # number of times the vector registers were written
system.cpu0.op_class::No_OpClass                    1      4.17%      4.17% # Class of executed instruction
system.cpu0.op_class::IntAlu                       13     54.17%     58.33% # Class of executed instruction
system.cpu0.op_class::IntMult                       0      0.00%     58.33% # Class of executed instruction
system.cpu0.op_class::IntDiv                        0      0.00%     58.33% # Class of executed instruction
system.cpu0.op_class::FloatAdd                      0      0.00%     58.33% # Class of executed instruction
system.cpu0.op_class::FloatCmp                      0      0.00%     58.33% # Class of executed instruction
system.cpu0.op_class::FloatCvt                      0      0.00%     58.33% # Class of executed instruction
system.cpu0.op_class::FloatMult                     0      0.00%     58.33% # Class of executed instruction
system.cpu0.op_class::FloatMultAcc                  0      0.00%     58.33% # Class of executed instruction
system.cpu0.op_class::FloatDiv                      0      0.00%     58.33% # Class of executed instruction
system.cpu0.op_class::FloatMisc                     0      0.00%     58.33% # Class of executed instruction
system.cpu0.op_class::FloatSqrt                     0      0.00%     58.33% # Class of executed instruction
system.cpu0.op_class::SimdAdd                       0      0.00%     58.33% # Class of executed instruction
system.cpu0.op_class::SimdAddAcc                    0      0.00%     58.33% # Class of executed instruction
system.cpu0.op_class::SimdAlu                       0      0.00%     58.33% # Class of executed instruction
system.cpu0.op_class::SimdCmp                       0      0.00%     58.33% # Class of executed instruction
system.cpu0.op_class::SimdCvt                       0      0.00%     58.33% # Class of executed instruction
system.cpu0.op_class::SimdMisc                      0      0.00%     58.33% # Class of executed instruction
system.cpu0.op_class::SimdMult                      0      0.00%     58.33% # Class of executed instruction
system.cpu0.op_class::SimdMultAcc                   0      0.00%     58.33% # Class of executed instruction
system.cpu0.op_class::SimdShift                     0      0.00%     58.33% # Class of executed instruction
system.cpu0.op_class::SimdShiftAcc                  0      0.00%     58.33% # Class of executed instruction
system.cpu0.op_class::SimdDiv                       0      0.00%     58.33% # Class of executed instruction
system.cpu0.op_class::SimdSqrt                      0      0.00%     58.33% # Class of executed instruction
system.cpu0.op_class::SimdFloatAdd                  0      0.00%     58.33% # Class of executed instruction
system.cpu0.op_class::SimdFloatAlu                  0      0.00%     58.33% # Class of executed instruction
system.cpu0.op_class::SimdFloatCmp                  0      0.00%     58.33% # Class of executed instruction
system.cpu0.op_class::SimdFloatCvt                  0      0.00%     58.33% # Class of executed instruction
system.cpu0.op_class::SimdFloatDiv                  0      0.00%     58.33% # Class of executed instruction
system.cpu0.op_class::SimdFloatMisc                 0      0.00%     58.33% # Class of executed instruction
system.cpu0.op_class::SimdFloatMult                 0      0.00%     58.33% # Class of executed instruction
system.cpu0.op_class::SimdFloatMultAcc              0      0.00%     58.33% # Class of executed instruction
system.cpu0.op_class::SimdFloatSqrt                 0      0.00%     58.33% # Class of executed instruction
system.cpu0.op_class::SimdReduceAdd                 0      0.00%     58.33% # Class of executed instruction
system.cpu0.op_class::SimdReduceAlu                 0      0.00%     58.33% # Class of executed instruction
system.cpu0.op_class::SimdReduceCmp                 0      0.00%     58.33% # Class of executed instruction
system.cpu0.op_class::SimdFloatReduceAdd            0      0.00%     58.33% # Class of executed instruction
system.cpu0.op_class::SimdFloatReduceCmp            0      0.00%     58.33% # Class of executed instruction
system.cpu0.op_class::SimdAes                       0      0.00%     58.33% # Class of executed instruction
system.cpu0.op_class::SimdAesMix                    0      0.00%     58.33% # Class of executed instruction
system.cpu0.op_class::SimdSha1Hash                  0      0.00%     58.33% # Class of executed instruction
system.cpu0.op_class::SimdSha1Hash2                 0      0.00%     58.33% # Class of executed instruction
system.cpu0.op_class::SimdSha256Hash                0      0.00%     58.33% # Class of executed instruction
system.cpu0.op_class::SimdSha256Hash2               0      0.00%     58.33% # Class of executed instruction
system.cpu0.op_class::SimdShaSigma2                 0      0.00%     58.33% # Class of executed instruction
system.cpu0.op_class::SimdShaSigma3                 0      0.00%     58.33% # Class of executed instruction
system.cpu0.op_class::SimdPredAlu                   0      0.00%     58.33% # Class of executed instruction
system.cpu0.op_class::MemRead                       8     33.33%     91.67% # Class of executed instruction
system.cpu0.op_class::MemWrite                      2      8.33%    100.00% # Class of executed instruction
system.cpu0.op_class::FloatMemRead                  0      0.00%    100.00% # Class of executed instruction
system.cpu0.op_class::FloatMemWrite                 0      0.00%    100.00% # Class of executed instruction
system.cpu0.op_class::IprAccess                     0      0.00%    100.00% # Class of executed instruction
system.cpu0.op_class::InstPrefetch                  0      0.00%    100.00% # Class of executed instruction
system.cpu0.op_class::total                        24                       # Class of executed instruction
system.cpu0.workload.numSyscalls                    0                       # Number of system calls
system.cpu1.Branches                                2                       # Number of branches fetched
system.cpu1.committedInsts                         16                       # Number of instructions committed
system.cpu1.committedOps                           22                       # Number of ops (including micro ops) committed
system.cpu1.idle_fraction                           0                       # Percentage of idle cycles
system.cpu1.l2bus.snoop_filter.hit_multi_requests            6                       # Number of requests hitting in the snoop filter with multiple (>1) holders of the requested data.
system.cpu1.l2bus.snoop_filter.hit_multi_snoops            0                       # Number of snoops hitting in the snoop filter with multiple (>1) holders of the requested data.
system.cpu1.l2bus.snoop_filter.hit_single_requests       692725                       # Number of requests hitting in the snoop filter with a single holder of the requested data.
system.cpu1.l2bus.snoop_filter.hit_single_snoops         1130                       # Number of snoops hitting in the snoop filter with a single holder of the requested data.
system.cpu1.l2bus.snoop_filter.tot_requests      1386408                       # Total number of requests made to the snoop filter.
system.cpu1.l2bus.snoop_filter.tot_snoops         1130                       # Total number of snoops made to the snoop filter.
system.cpu1.mmucache.mmubus.snoop_filter.hit_multi_requests            0                       # Number of requests hitting in the snoop filter with multiple (>1) holders of the requested data.
system.cpu1.mmucache.mmubus.snoop_filter.hit_multi_snoops            0                       # Number of snoops hitting in the snoop filter with multiple (>1) holders of the requested data.
system.cpu1.mmucache.mmubus.snoop_filter.hit_single_requests            0                       # Number of requests hitting in the snoop filter with a single holder of the requested data.
system.cpu1.mmucache.mmubus.snoop_filter.hit_single_snoops            0                       # Number of snoops hitting in the snoop filter with a single holder of the requested data.
system.cpu1.mmucache.mmubus.snoop_filter.tot_requests            0                       # Total number of requests made to the snoop filter.
system.cpu1.mmucache.mmubus.snoop_filter.tot_snoops            0                       # Total number of snoops made to the snoop filter.
system.cpu1.not_idle_fraction                       1                       # Percentage of non-idle cycles
system.cpu1.numCycles                              30                       # number of cpu cycles simulated
system.cpu1.numWorkItemsCompleted                   0                       # number of work items this cpu completed
system.cpu1.numWorkItemsStarted                     0                       # number of work items this cpu started
system.cpu1.num_busy_cycles                        30                       # Number of busy cycles
system.cpu1.num_cc_register_reads                  12                       # number of times the CC registers were read
system.cpu1.num_cc_register_writes                  2                       # number of times the CC registers were written
system.cpu1.num_conditional_control_insts            2                       # number of instructions that are conditional controls
system.cpu1.num_fp_alu_accesses                    15                       # Number of float alu accesses
system.cpu1.num_fp_insts                           15                       # number of float instructions
system.cpu1.num_fp_register_reads                  40                       # number of times the floating registers were read
system.cpu1.num_fp_register_writes                 14                       # number of times the floating registers were written
system.cpu1.num_func_calls                          0                       # number of times a function call or return occured
system.cpu1.num_idle_cycles                         0                       # Number of idle cycles
system.cpu1.num_int_alu_accesses                    7                       # Number of integer alu accesses
system.cpu1.num_int_insts                           7                       # number of integer instructions
system.cpu1.num_int_register_reads                 12                       # number of times the integer registers were read
system.cpu1.num_int_register_writes                 4                       # number of times the integer registers were written
system.cpu1.num_load_insts                          0                       # Number of load instructions
system.cpu1.num_mem_refs                            1                       # number of memory refs
system.cpu1.num_store_insts                         1                       # Number of store instructions
system.cpu1.num_vec_alu_accesses                    0                       # Number of vector alu accesses
system.cpu1.num_vec_insts                           0                       # number of vector instructions
system.cpu1.num_vec_register_reads                  0                       # number of times the vector registers were read
system.cpu1.num_vec_register_writes                 0                       # number of times the vector registers were written
system.cpu1.op_class::No_OpClass                    0      0.00%      0.00% # Class of executed instruction
system.cpu1.op_class::IntAlu                       10     45.45%     45.45% # Class of executed instruction
system.cpu1.op_class::IntMult                       0      0.00%     45.45% # Class of executed instruction
system.cpu1.op_class::IntDiv                        0      0.00%     45.45% # Class of executed instruction
system.cpu1.op_class::FloatAdd                      0      0.00%     45.45% # Class of executed instruction
system.cpu1.op_class::FloatCmp                      0      0.00%     45.45% # Class of executed instruction
system.cpu1.op_class::FloatCvt                      0      0.00%     45.45% # Class of executed instruction
system.cpu1.op_class::FloatMult                     0      0.00%     45.45% # Class of executed instruction
system.cpu1.op_class::FloatMultAcc                  0      0.00%     45.45% # Class of executed instruction
system.cpu1.op_class::FloatDiv                      0      0.00%     45.45% # Class of executed instruction
system.cpu1.op_class::FloatMisc                     0      0.00%     45.45% # Class of executed instruction
system.cpu1.op_class::FloatSqrt                     0      0.00%     45.45% # Class of executed instruction
system.cpu1.op_class::SimdAdd                       0      0.00%     45.45% # Class of executed instruction
system.cpu1.op_class::SimdAddAcc                    0      0.00%     45.45% # Class of executed instruction
system.cpu1.op_class::SimdAlu                       0      0.00%     45.45% # Class of executed instruction
system.cpu1.op_class::SimdCmp                       0      0.00%     45.45% # Class of executed instruction
system.cpu1.op_class::SimdCvt                       0      0.00%     45.45% # Class of executed instruction
system.cpu1.op_class::SimdMisc                      0      0.00%     45.45% # Class of executed instruction
system.cpu1.op_class::SimdMult                      0      0.00%     45.45% # Class of executed instruction
system.cpu1.op_class::SimdMultAcc                   0      0.00%     45.45% # Class of executed instruction
system.cpu1.op_class::SimdShift                     0      0.00%     45.45% # Class of executed instruction
system.cpu1.op_class::SimdShiftAcc                  0      0.00%     45.45% # Class of executed instruction
system.cpu1.op_class::SimdDiv                       0      0.00%     45.45% # Class of executed instruction
system.cpu1.op_class::SimdSqrt                      0      0.00%     45.45% # Class of executed instruction
system.cpu1.op_class::SimdFloatAdd                  7     31.82%     77.27% # Class of executed instruction
system.cpu1.op_class::SimdFloatAlu                  0      0.00%     77.27% # Class of executed instruction
system.cpu1.op_class::SimdFloatCmp                  0      0.00%     77.27% # Class of executed instruction
system.cpu1.op_class::SimdFloatCvt                  1      4.55%     81.82% # Class of executed instruction
system.cpu1.op_class::SimdFloatDiv                  0      0.00%     81.82% # Class of executed instruction
system.cpu1.op_class::SimdFloatMisc                 0      0.00%     81.82% # Class of executed instruction
system.cpu1.op_class::SimdFloatMult                 3     13.64%     95.45% # Class of executed instruction
system.cpu1.op_class::SimdFloatMultAcc              0      0.00%     95.45% # Class of executed instruction
system.cpu1.op_class::SimdFloatSqrt                 0      0.00%     95.45% # Class of executed instruction
system.cpu1.op_class::SimdReduceAdd                 0      0.00%     95.45% # Class of executed instruction
system.cpu1.op_class::SimdReduceAlu                 0      0.00%     95.45% # Class of executed instruction
system.cpu1.op_class::SimdReduceCmp                 0      0.00%     95.45% # Class of executed instruction
system.cpu1.op_class::SimdFloatReduceAdd            0      0.00%     95.45% # Class of executed instruction
system.cpu1.op_class::SimdFloatReduceCmp            0      0.00%     95.45% # Class of executed instruction
system.cpu1.op_class::SimdAes                       0      0.00%     95.45% # Class of executed instruction
system.cpu1.op_class::SimdAesMix                    0      0.00%     95.45% # Class of executed instruction
system.cpu1.op_class::SimdSha1Hash                  0      0.00%     95.45% # Class of executed instruction
system.cpu1.op_class::SimdSha1Hash2                 0      0.00%     95.45% # Class of executed instruction
system.cpu1.op_class::SimdSha256Hash                0      0.00%     95.45% # Class of executed instruction
system.cpu1.op_class::SimdSha256Hash2               0      0.00%     95.45% # Class of executed instruction
system.cpu1.op_class::SimdShaSigma2                 0      0.00%     95.45% # Class of executed instruction
system.cpu1.op_class::SimdShaSigma3                 0      0.00%     95.45% # Class of executed instruction
system.cpu1.op_class::SimdPredAlu                   0      0.00%     95.45% # Class of executed instruction
system.cpu1.op_class::MemRead                       0      0.00%     95.45% # Class of executed instruction
system.cpu1.op_class::MemWrite                      1      4.55%    100.00% # Class of executed instruction
system.cpu1.op_class::FloatMemRead                  0      0.00%    100.00% # Class of executed instruction
system.cpu1.op_class::FloatMemWrite                 0      0.00%    100.00% # Class of executed instruction
system.cpu1.op_class::IprAccess                     0      0.00%    100.00% # Class of executed instruction
system.cpu1.op_class::InstPrefetch                  0      0.00%    100.00% # Class of executed instruction
system.cpu1.op_class::total                        22                       # Class of executed instruction
system.cpu1.workload.numSyscalls                    0                       # Number of system calls
system.cpu2.Branches                                2                       # Number of branches fetched
system.cpu2.committedInsts                         14                       # Number of instructions committed
system.cpu2.committedOps                           25                       # Number of ops (including micro ops) committed
system.cpu2.idle_fraction                           0                       # Percentage of idle cycles
system.cpu2.l2bus.snoop_filter.hit_multi_requests            3                       # Number of requests hitting in the snoop filter with multiple (>1) holders of the requested data.
system.cpu2.l2bus.snoop_filter.hit_multi_snoops            0                       # Number of snoops hitting in the snoop filter with multiple (>1) holders of the requested data.
system.cpu2.l2bus.snoop_filter.hit_single_requests      2529373                       # Number of requests hitting in the snoop filter with a single holder of the requested data.
system.cpu2.l2bus.snoop_filter.hit_single_snoops          208                       # Number of snoops hitting in the snoop filter with a single holder of the requested data.
system.cpu2.l2bus.snoop_filter.tot_requests      5059437                       # Total number of requests made to the snoop filter.
system.cpu2.l2bus.snoop_filter.tot_snoops          208                       # Total number of snoops made to the snoop filter.
system.cpu2.mmucache.mmubus.snoop_filter.hit_multi_requests            0                       # Number of requests hitting in the snoop filter with multiple (>1) holders of the requested data.
system.cpu2.mmucache.mmubus.snoop_filter.hit_multi_snoops            0                       # Number of snoops hitting in the snoop filter with multiple (>1) holders of the requested data.
system.cpu2.mmucache.mmubus.snoop_filter.hit_single_requests            0                       # Number of requests hitting in the snoop filter with a single holder of the requested data.
system.cpu2.mmucache.mmubus.snoop_filter.hit_single_snoops            0                       # Number of snoops hitting in the snoop filter with a single holder of the requested data.
system.cpu2.mmucache.mmubus.snoop_filter.tot_requests            0                       # Total number of requests made to the snoop filter.
system.cpu2.mmucache.mmubus.snoop_filter.tot_snoops            0                       # Total number of snoops made to the snoop filter.
system.cpu2.not_idle_fraction                       1                       # Percentage of non-idle cycles
system.cpu2.numCycles                              30                       # number of cpu cycles simulated
system.cpu2.numWorkItemsCompleted                   0                       # number of work items this cpu completed
system.cpu2.numWorkItemsStarted                     0                       # number of work items this cpu started
system.cpu2.num_busy_cycles                        30                       # Number of busy cycles
system.cpu2.num_cc_register_reads                  12                       # number of times the CC registers were read
system.cpu2.num_cc_register_writes                 10                       # number of times the CC registers were written
system.cpu2.num_conditional_control_insts            2                       # number of instructions that are conditional controls
system.cpu2.num_fp_alu_accesses                     8                       # Number of float alu accesses
system.cpu2.num_fp_insts                            8                       # number of float instructions
system.cpu2.num_fp_register_reads                  14                       # number of times the floating registers were read
system.cpu2.num_fp_register_writes                  7                       # number of times the floating registers were written
system.cpu2.num_func_calls                          0                       # number of times a function call or return occured
system.cpu2.num_idle_cycles                         0                       # Number of idle cycles
system.cpu2.num_int_alu_accesses                   20                       # Number of integer alu accesses
system.cpu2.num_int_insts                          20                       # number of integer instructions
system.cpu2.num_int_register_reads                 31                       # number of times the integer registers were read
system.cpu2.num_int_register_writes                15                       # number of times the integer registers were written
system.cpu2.num_load_insts                          3                       # Number of load instructions
system.cpu2.num_mem_refs                            3                       # number of memory refs
system.cpu2.num_store_insts                         0                       # Number of store instructions
system.cpu2.num_vec_alu_accesses                    0                       # Number of vector alu accesses
system.cpu2.num_vec_insts                           0                       # number of vector instructions
system.cpu2.num_vec_register_reads                  0                       # number of times the vector registers were read
system.cpu2.num_vec_register_writes                 0                       # number of times the vector registers were written
system.cpu2.op_class::No_OpClass                    0      0.00%      0.00% # Class of executed instruction
system.cpu2.op_class::IntAlu                       15     60.00%     60.00% # Class of executed instruction
system.cpu2.op_class::IntMult                       0      0.00%     60.00% # Class of executed instruction
system.cpu2.op_class::IntDiv                        0      0.00%     60.00% # Class of executed instruction
system.cpu2.op_class::FloatAdd                      0      0.00%     60.00% # Class of executed instruction
system.cpu2.op_class::FloatCmp                      0      0.00%     60.00% # Class of executed instruction
system.cpu2.op_class::FloatCvt                      0      0.00%     60.00% # Class of executed instruction
system.cpu2.op_class::FloatMult                     0      0.00%     60.00% # Class of executed instruction
system.cpu2.op_class::FloatMultAcc                  0      0.00%     60.00% # Class of executed instruction
system.cpu2.op_class::FloatDiv                      0      0.00%     60.00% # Class of executed instruction
system.cpu2.op_class::FloatMisc                     0      0.00%     60.00% # Class of executed instruction
system.cpu2.op_class::FloatSqrt                     0      0.00%     60.00% # Class of executed instruction
system.cpu2.op_class::SimdAdd                       0      0.00%     60.00% # Class of executed instruction
system.cpu2.op_class::SimdAddAcc                    0      0.00%     60.00% # Class of executed instruction
system.cpu2.op_class::SimdAlu                       0      0.00%     60.00% # Class of executed instruction
system.cpu2.op_class::SimdCmp                       0      0.00%     60.00% # Class of executed instruction
system.cpu2.op_class::SimdCvt                       0      0.00%     60.00% # Class of executed instruction
system.cpu2.op_class::SimdMisc                      2      8.00%     68.00% # Class of executed instruction
system.cpu2.op_class::SimdMult                      0      0.00%     68.00% # Class of executed instruction
system.cpu2.op_class::SimdMultAcc                   0      0.00%     68.00% # Class of executed instruction
system.cpu2.op_class::SimdShift                     0      0.00%     68.00% # Class of executed instruction
system.cpu2.op_class::SimdShiftAcc                  0      0.00%     68.00% # Class of executed instruction
system.cpu2.op_class::SimdDiv                       0      0.00%     68.00% # Class of executed instruction
system.cpu2.op_class::SimdSqrt                      0      0.00%     68.00% # Class of executed instruction
system.cpu2.op_class::SimdFloatAdd                  1      4.00%     72.00% # Class of executed instruction
system.cpu2.op_class::SimdFloatAlu                  0      0.00%     72.00% # Class of executed instruction
system.cpu2.op_class::SimdFloatCmp                  0      0.00%     72.00% # Class of executed instruction
system.cpu2.op_class::SimdFloatCvt                  3     12.00%     84.00% # Class of executed instruction
system.cpu2.op_class::SimdFloatDiv                  0      0.00%     84.00% # Class of executed instruction
system.cpu2.op_class::SimdFloatMisc                 0      0.00%     84.00% # Class of executed instruction
system.cpu2.op_class::SimdFloatMult                 1      4.00%     88.00% # Class of executed instruction
system.cpu2.op_class::SimdFloatMultAcc              0      0.00%     88.00% # Class of executed instruction
system.cpu2.op_class::SimdFloatSqrt                 0      0.00%     88.00% # Class of executed instruction
system.cpu2.op_class::SimdReduceAdd                 0      0.00%     88.00% # Class of executed instruction
system.cpu2.op_class::SimdReduceAlu                 0      0.00%     88.00% # Class of executed instruction
system.cpu2.op_class::SimdReduceCmp                 0      0.00%     88.00% # Class of executed instruction
system.cpu2.op_class::SimdFloatReduceAdd            0      0.00%     88.00% # Class of executed instruction
system.cpu2.op_class::SimdFloatReduceCmp            0      0.00%     88.00% # Class of executed instruction
system.cpu2.op_class::SimdAes                       0      0.00%     88.00% # Class of executed instruction
system.cpu2.op_class::SimdAesMix                    0      0.00%     88.00% # Class of executed instruction
system.cpu2.op_class::SimdSha1Hash                  0      0.00%     88.00% # Class of executed instruction
system.cpu2.op_class::SimdSha1Hash2                 0      0.00%     88.00% # Class of executed instruction
system.cpu2.op_class::SimdSha256Hash                0      0.00%     88.00% # Class of executed instruction
system.cpu2.op_class::SimdSha256Hash2               0      0.00%     88.00% # Class of executed instruction
system.cpu2.op_class::SimdShaSigma2                 0      0.00%     88.00% # Class of executed instruction
system.cpu2.op_class::SimdShaSigma3                 0      0.00%     88.00% # Class of executed instruction
system.cpu2.op_class::SimdPredAlu                   0      0.00%     88.00% # Class of executed instruction
system.cpu2.op_class::MemRead                       2      8.00%     96.00% # Class of executed instruction
system.cpu2.op_class::MemWrite                      0      0.00%     96.00% # Class of executed instruction
system.cpu2.op_class::FloatMemRead                  1      4.00%    100.00% # Class of executed instruction
system.cpu2.op_class::FloatMemWrite                 0      0.00%    100.00% # Class of executed instruction
system.cpu2.op_class::IprAccess                     0      0.00%    100.00% # Class of executed instruction
system.cpu2.op_class::InstPrefetch                  0      0.00%    100.00% # Class of executed instruction
system.cpu2.op_class::total                        25                       # Class of executed instruction
system.cpu2.workload.numSyscalls                    0                       # Number of system calls
system.cpu3.Branches                                1                       # Number of branches fetched
system.cpu3.committedInsts                         11                       # Number of instructions committed
system.cpu3.committedOps                           23                       # Number of ops (including micro ops) committed
system.cpu3.idle_fraction                           0                       # Percentage of idle cycles
system.cpu3.l2bus.snoop_filter.hit_multi_requests           29                       # Number of requests hitting in the snoop filter with multiple (>1) holders of the requested data.
system.cpu3.l2bus.snoop_filter.hit_multi_snoops            0                       # Number of snoops hitting in the snoop filter with multiple (>1) holders of the requested data.
system.cpu3.l2bus.snoop_filter.hit_single_requests        84909                       # Number of requests hitting in the snoop filter with a single holder of the requested data.
system.cpu3.l2bus.snoop_filter.hit_single_snoops          355                       # Number of snoops hitting in the snoop filter with a single holder of the requested data.
system.cpu3.l2bus.snoop_filter.tot_requests       170612                       # Total number of requests made to the snoop filter.
system.cpu3.l2bus.snoop_filter.tot_snoops          355                       # Total number of snoops made to the snoop filter.
system.cpu3.mmucache.mmubus.snoop_filter.hit_multi_requests            0                       # Number of requests hitting in the snoop filter with multiple (>1) holders of the requested data.
system.cpu3.mmucache.mmubus.snoop_filter.hit_multi_snoops            0                       # Number of snoops hitting in the snoop filter with multiple (>1) holders of the requested data.
system.cpu3.mmucache.mmubus.snoop_filter.hit_single_requests            0                       # Number of requests hitting in the snoop filter with a single holder of the requested data.
system.cpu3.mmucache.mmubus.snoop_filter.hit_single_snoops            0                       # Number of snoops hitting in the snoop filter with a single holder of the requested data.
system.cpu3.mmucache.mmubus.snoop_filter.tot_requests            0                       # Total number of requests made to the snoop filter.
system.cpu3.mmucache.mmubus.snoop_filter.tot_snoops            0                       # Total number of snoops made to the snoop filter.
system.cpu3.not_idle_fraction                       1                       # Percentage of non-idle cycles
system.cpu3.numCycles                              30                       # number of cpu cycles simulated
system.cpu3.numWorkItemsCompleted                   0                       # number of work items this cpu completed
system.cpu3.numWorkItemsStarted                     0                       # number of work items this cpu started
system.cpu3.num_busy_cycles                        30                       # Number of busy cycles
system.cpu3.num_cc_register_reads                   5                       # number of times the CC registers were read
system.cpu3.num_cc_register_writes                  4                       # number of times the CC registers were written
system.cpu3.num_conditional_control_insts            1                       # number of instructions that are conditional controls
system.cpu3.num_fp_alu_accesses                    12                       # Number of float alu accesses
system.cpu3.num_fp_insts                           12                       # number of float instructions
system.cpu3.num_fp_register_reads                   4                       # number of times the floating registers were read
system.cpu3.num_fp_register_writes                  8                       # number of times the floating registers were written
system.cpu3.num_func_calls                          0                       # number of times a function call or return occured
system.cpu3.num_idle_cycles                         0                       # Number of idle cycles
system.cpu3.num_int_alu_accesses                   23                       # Number of integer alu accesses
system.cpu3.num_int_insts                          23                       # number of integer instructions
system.cpu3.num_int_register_reads                 58                       # number of times the integer registers were read
system.cpu3.num_int_register_writes                 8                       # number of times the integer registers were written
system.cpu3.num_load_insts                         10                       # Number of load instructions
system.cpu3.num_mem_refs                           16                       # number of memory refs
system.cpu3.num_store_insts                         6                       # Number of store instructions
system.cpu3.num_vec_alu_accesses                    0                       # Number of vector alu accesses
system.cpu3.num_vec_insts                           0                       # number of vector instructions
system.cpu3.num_vec_register_reads                  0                       # number of times the vector registers were read
system.cpu3.num_vec_register_writes                 0                       # number of times the vector registers were written
system.cpu3.op_class::No_OpClass                    2      8.00%      8.00% # Class of executed instruction
system.cpu3.op_class::IntAlu                        7     28.00%     36.00% # Class of executed instruction
system.cpu3.op_class::IntMult                       0      0.00%     36.00% # Class of executed instruction
system.cpu3.op_class::IntDiv                        0      0.00%     36.00% # Class of executed instruction
system.cpu3.op_class::FloatAdd                      0      0.00%     36.00% # Class of executed instruction
system.cpu3.op_class::FloatCmp                      0      0.00%     36.00% # Class of executed instruction
system.cpu3.op_class::FloatCvt                      0      0.00%     36.00% # Class of executed instruction
system.cpu3.op_class::FloatMult                     0      0.00%     36.00% # Class of executed instruction
system.cpu3.op_class::FloatMultAcc                  0      0.00%     36.00% # Class of executed instruction
system.cpu3.op_class::FloatDiv                      0      0.00%     36.00% # Class of executed instruction
system.cpu3.op_class::FloatMisc                     0      0.00%     36.00% # Class of executed instruction
system.cpu3.op_class::FloatSqrt                     0      0.00%     36.00% # Class of executed instruction
system.cpu3.op_class::SimdAdd                       0      0.00%     36.00% # Class of executed instruction
system.cpu3.op_class::SimdAddAcc                    0      0.00%     36.00% # Class of executed instruction
system.cpu3.op_class::SimdAlu                       0      0.00%     36.00% # Class of executed instruction
system.cpu3.op_class::SimdCmp                       0      0.00%     36.00% # Class of executed instruction
system.cpu3.op_class::SimdCvt                       0      0.00%     36.00% # Class of executed instruction
system.cpu3.op_class::SimdMisc                      0      0.00%     36.00% # Class of executed instruction
system.cpu3.op_class::SimdMult                      0      0.00%     36.00% # Class of executed instruction
system.cpu3.op_class::SimdMultAcc                   0      0.00%     36.00% # Class of executed instruction
system.cpu3.op_class::SimdShift                     0      0.00%     36.00% # Class of executed instruction
system.cpu3.op_class::SimdShiftAcc                  0      0.00%     36.00% # Class of executed instruction
system.cpu3.op_class::SimdDiv                       0      0.00%     36.00% # Class of executed instruction
system.cpu3.op_class::SimdSqrt                      0      0.00%     36.00% # Class of executed instruction
system.cpu3.op_class::SimdFloatAdd                  0      0.00%     36.00% # Class of executed instruction
system.cpu3.op_class::SimdFloatAlu                  0      0.00%     36.00% # Class of executed instruction
system.cpu3.op_class::SimdFloatCmp                  0      0.00%     36.00% # Class of executed instruction
system.cpu3.op_class::SimdFloatCvt                  0      0.00%     36.00% # Class of executed instruction
system.cpu3.op_class::SimdFloatDiv                  0      0.00%     36.00% # Class of executed instruction
system.cpu3.op_class::SimdFloatMisc                 0      0.00%     36.00% # Class of executed instruction
system.cpu3.op_class::SimdFloatMult                 0      0.00%     36.00% # Class of executed instruction
system.cpu3.op_class::SimdFloatMultAcc              0      0.00%     36.00% # Class of executed instruction
system.cpu3.op_class::SimdFloatSqrt                 0      0.00%     36.00% # Class of executed instruction
system.cpu3.op_class::SimdReduceAdd                 0      0.00%     36.00% # Class of executed instruction
system.cpu3.op_class::SimdReduceAlu                 0      0.00%     36.00% # Class of executed instruction
system.cpu3.op_class::SimdReduceCmp                 0      0.00%     36.00% # Class of executed instruction
system.cpu3.op_class::SimdFloatReduceAdd            0      0.00%     36.00% # Class of executed instruction
system.cpu3.op_class::SimdFloatReduceCmp            0      0.00%     36.00% # Class of executed instruction
system.cpu3.op_class::SimdAes                       0      0.00%     36.00% # Class of executed instruction
system.cpu3.op_class::SimdAesMix                    0      0.00%     36.00% # Class of executed instruction
system.cpu3.op_class::SimdSha1Hash                  0      0.00%     36.00% # Class of executed instruction
system.cpu3.op_class::SimdSha1Hash2                 0      0.00%     36.00% # Class of executed instruction
system.cpu3.op_class::SimdSha256Hash                0      0.00%     36.00% # Class of executed instruction
system.cpu3.op_class::SimdSha256Hash2               0      0.00%     36.00% # Class of executed instruction
system.cpu3.op_class::SimdShaSigma2                 0      0.00%     36.00% # Class of executed instruction
system.cpu3.op_class::SimdShaSigma3                 0      0.00%     36.00% # Class of executed instruction
system.cpu3.op_class::SimdPredAlu                   0      0.00%     36.00% # Class of executed instruction
system.cpu3.op_class::MemRead                       2      8.00%     44.00% # Class of executed instruction
system.cpu3.op_class::MemWrite                      2      8.00%     52.00% # Class of executed instruction
system.cpu3.op_class::FloatMemRead                  8     32.00%     84.00% # Class of executed instruction
system.cpu3.op_class::FloatMemWrite                 4     16.00%    100.00% # Class of executed instruction
system.cpu3.op_class::IprAccess                     0      0.00%    100.00% # Class of executed instruction
system.cpu3.op_class::InstPrefetch                  0      0.00%    100.00% # Class of executed instruction
system.cpu3.op_class::total                        25                       # Class of executed instruction
system.cpu3.workload.numSyscalls                    0                       # Number of system calls
system.l3bus.snoop_filter.hit_multi_requests            0                       # Number of requests hitting in the snoop filter with multiple (>1) holders of the requested data.
system.l3bus.snoop_filter.hit_multi_snoops            0                       # Number of snoops hitting in the snoop filter with multiple (>1) holders of the requested data.
system.l3bus.snoop_filter.hit_single_requests       200355                       # Number of requests hitting in the snoop filter with a single holder of the requested data.
system.l3bus.snoop_filter.hit_single_snoops            0                       # Number of snoops hitting in the snoop filter with a single holder of the requested data.
system.l3bus.snoop_filter.tot_requests         414577                       # Total number of requests made to the snoop filter.
system.l3bus.snoop_filter.tot_snoops                0                       # Total number of snoops made to the snoop filter.
system.membus.snoop_filter.hit_multi_requests            0                       # Number of requests hitting in the snoop filter with multiple (>1) holders of the requested data.
system.membus.snoop_filter.hit_multi_snoops            0                       # Number of snoops hitting in the snoop filter with multiple (>1) holders of the requested data.
system.membus.snoop_filter.hit_single_requests        97066                       # Number of requests hitting in the snoop filter with a single holder of the requested data.
system.membus.snoop_filter.hit_single_snoops            0                       # Number of snoops hitting in the snoop filter with a single holder of the requested data.
system.membus.snoop_filter.tot_requests        273250                       # Total number of requests made to the snoop filter.
system.membus.snoop_filter.tot_snoops               0                       # Total number of snoops made to the snoop filter.
system.switch_cpus0.cc_regfile_reads        146408475                       # number of cc regfile reads
system.switch_cpus0.cc_regfile_writes       151798450                       # number of cc regfile writes
system.switch_cpus0.committedInsts          157304341                       # Number of Instructions Simulated
system.switch_cpus0.committedOps            309274946                       # Number of Ops (including micro ops) Simulated
system.switch_cpus0.cpi                      0.537707                       # CPI: Cycles Per Instruction
system.switch_cpus0.cpi_total                0.537707                       # CPI: Total CPI of All Threads
system.switch_cpus0.fp_regfile_writes              56                       # number of floating regfile writes
system.switch_cpus0.idleCycles                  57935                       # Total number of cycles that the CPU has spent unscheduled due to idling
system.switch_cpus0.iew.branchMispredicts      1605333                       # Number of branch mispredicts detected at execute
system.switch_cpus0.iew.exec_branches        28943965                       # Number of branches executed
system.switch_cpus0.iew.exec_nop                    0                       # number of nop insts executed
system.switch_cpus0.iew.exec_rate            4.297000                       # Inst execution rate
system.switch_cpus0.iew.exec_refs           107504056                       # number of memory reference insts executed
system.switch_cpus0.iew.exec_stores          29098293                       # Number of stores executed
system.switch_cpus0.iew.exec_swp                    0                       # number of swp insts executed
system.switch_cpus0.iew.iewBlockCycles        9804976                       # Number of cycles IEW is blocking
system.switch_cpus0.iew.iewDispLoadInsts     84720451                       # Number of dispatched load instructions
system.switch_cpus0.iew.iewDispNonSpecInsts            0                       # Number of dispatched non-speculative instructions
system.switch_cpus0.iew.iewDispSquashedInsts         8347                       # Number of squashed instructions skipped by dispatch
system.switch_cpus0.iew.iewDispStoreInsts     33449244                       # Number of dispatched store instructions
system.switch_cpus0.iew.iewDispatchedInsts    392510062                       # Number of instructions dispatched to IQ
system.switch_cpus0.iew.iewExecLoadInsts     78405763                       # Number of load instructions executed
system.switch_cpus0.iew.iewExecSquashedInsts      4567880                       # Number of squashed instructions skipped in execute
system.switch_cpus0.iew.iewExecutedInsts    363456115                       # Number of executed instructions
system.switch_cpus0.iew.iewIQFullEvents            31                       # Number of times the IQ has become full, causing a stall
system.switch_cpus0.iew.iewIdleCycles               0                       # Number of cycles IEW is idle
system.switch_cpus0.iew.iewLSQFullEvents         2067                       # Number of times the LSQ has become full, causing a stall
system.switch_cpus0.iew.iewSquashCycles       1325555                       # Number of cycles IEW is squashing
system.switch_cpus0.iew.iewUnblockCycles         2104                       # Number of cycles IEW is unblocking
system.switch_cpus0.iew.memOrderViolationEvents        22660                       # Number of memory order violations
system.switch_cpus0.iew.predictedNotTakenIncorrect       772668                       # Number of branches that were predicted not taken incorrectly
system.switch_cpus0.iew.predictedTakenIncorrect       832665                       # Number of branches that were predicted taken incorrectly
system.switch_cpus0.iew.wb_consumers        406552256                       # num instructions consuming a value
system.switch_cpus0.iew.wb_count            361303285                       # cumulative count of insts written-back
system.switch_cpus0.iew.wb_fanout            0.670898                       # average fanout of values written-back
system.switch_cpus0.iew.wb_producers        272755297                       # num instructions producing a value
system.switch_cpus0.iew.wb_rate              4.271548                       # insts written-back per cycle
system.switch_cpus0.iew.wb_sent             362743120                       # cumulative count of insts sent to commit
system.switch_cpus0.int_regfile_reads       525653303                       # number of integer regfile reads
system.switch_cpus0.int_regfile_writes      304705511                       # number of integer regfile writes
system.switch_cpus0.ipc                      1.859748                       # IPC: Instructions Per Cycle
system.switch_cpus0.ipc_total                1.859748                       # IPC: Total IPC of All Threads
system.switch_cpus0.iq.FU_type_0::No_OpClass       788651      0.21%      0.21% # Type of FU issued
system.switch_cpus0.iq.FU_type_0::IntAlu    255393790     69.40%     69.61% # Type of FU issued
system.switch_cpus0.iq.FU_type_0::IntMult      2145600      0.58%     70.19% # Type of FU issued
system.switch_cpus0.iq.FU_type_0::IntDiv            0      0.00%     70.19% # Type of FU issued
system.switch_cpus0.iq.FU_type_0::FloatAdd            0      0.00%     70.19% # Type of FU issued
system.switch_cpus0.iq.FU_type_0::FloatCmp            0      0.00%     70.19% # Type of FU issued
system.switch_cpus0.iq.FU_type_0::FloatCvt            0      0.00%     70.19% # Type of FU issued
system.switch_cpus0.iq.FU_type_0::FloatMult            0      0.00%     70.19% # Type of FU issued
system.switch_cpus0.iq.FU_type_0::FloatMultAcc            0      0.00%     70.19% # Type of FU issued
system.switch_cpus0.iq.FU_type_0::FloatDiv            0      0.00%     70.19% # Type of FU issued
system.switch_cpus0.iq.FU_type_0::FloatMisc            0      0.00%     70.19% # Type of FU issued
system.switch_cpus0.iq.FU_type_0::FloatSqrt            0      0.00%     70.19% # Type of FU issued
system.switch_cpus0.iq.FU_type_0::SimdAdd            0      0.00%     70.19% # Type of FU issued
system.switch_cpus0.iq.FU_type_0::SimdAddAcc            0      0.00%     70.19% # Type of FU issued
system.switch_cpus0.iq.FU_type_0::SimdAlu            0      0.00%     70.19% # Type of FU issued
system.switch_cpus0.iq.FU_type_0::SimdCmp            0      0.00%     70.19% # Type of FU issued
system.switch_cpus0.iq.FU_type_0::SimdCvt            0      0.00%     70.19% # Type of FU issued
system.switch_cpus0.iq.FU_type_0::SimdMisc            0      0.00%     70.19% # Type of FU issued
system.switch_cpus0.iq.FU_type_0::SimdMult            0      0.00%     70.19% # Type of FU issued
system.switch_cpus0.iq.FU_type_0::SimdMultAcc            0      0.00%     70.19% # Type of FU issued
system.switch_cpus0.iq.FU_type_0::SimdShift            0      0.00%     70.19% # Type of FU issued
system.switch_cpus0.iq.FU_type_0::SimdShiftAcc            0      0.00%     70.19% # Type of FU issued
system.switch_cpus0.iq.FU_type_0::SimdDiv            0      0.00%     70.19% # Type of FU issued
system.switch_cpus0.iq.FU_type_0::SimdSqrt            0      0.00%     70.19% # Type of FU issued
system.switch_cpus0.iq.FU_type_0::SimdFloatAdd            0      0.00%     70.19% # Type of FU issued
system.switch_cpus0.iq.FU_type_0::SimdFloatAlu            0      0.00%     70.19% # Type of FU issued
system.switch_cpus0.iq.FU_type_0::SimdFloatCmp            0      0.00%     70.19% # Type of FU issued
system.switch_cpus0.iq.FU_type_0::SimdFloatCvt            0      0.00%     70.19% # Type of FU issued
system.switch_cpus0.iq.FU_type_0::SimdFloatDiv            0      0.00%     70.19% # Type of FU issued
system.switch_cpus0.iq.FU_type_0::SimdFloatMisc            0      0.00%     70.19% # Type of FU issued
system.switch_cpus0.iq.FU_type_0::SimdFloatMult            0      0.00%     70.19% # Type of FU issued
system.switch_cpus0.iq.FU_type_0::SimdFloatMultAcc            0      0.00%     70.19% # Type of FU issued
system.switch_cpus0.iq.FU_type_0::SimdFloatSqrt            0      0.00%     70.19% # Type of FU issued
system.switch_cpus0.iq.FU_type_0::SimdReduceAdd            0      0.00%     70.19% # Type of FU issued
system.switch_cpus0.iq.FU_type_0::SimdReduceAlu            0      0.00%     70.19% # Type of FU issued
system.switch_cpus0.iq.FU_type_0::SimdReduceCmp            0      0.00%     70.19% # Type of FU issued
system.switch_cpus0.iq.FU_type_0::SimdFloatReduceAdd            0      0.00%     70.19% # Type of FU issued
system.switch_cpus0.iq.FU_type_0::SimdFloatReduceCmp            0      0.00%     70.19% # Type of FU issued
system.switch_cpus0.iq.FU_type_0::SimdAes            0      0.00%     70.19% # Type of FU issued
system.switch_cpus0.iq.FU_type_0::SimdAesMix            0      0.00%     70.19% # Type of FU issued
system.switch_cpus0.iq.FU_type_0::SimdSha1Hash            0      0.00%     70.19% # Type of FU issued
system.switch_cpus0.iq.FU_type_0::SimdSha1Hash2            0      0.00%     70.19% # Type of FU issued
system.switch_cpus0.iq.FU_type_0::SimdSha256Hash            0      0.00%     70.19% # Type of FU issued
system.switch_cpus0.iq.FU_type_0::SimdSha256Hash2            0      0.00%     70.19% # Type of FU issued
system.switch_cpus0.iq.FU_type_0::SimdShaSigma2            0      0.00%     70.19% # Type of FU issued
system.switch_cpus0.iq.FU_type_0::SimdShaSigma3            0      0.00%     70.19% # Type of FU issued
system.switch_cpus0.iq.FU_type_0::SimdPredAlu            0      0.00%     70.19% # Type of FU issued
system.switch_cpus0.iq.FU_type_0::MemRead     80068085     21.76%     91.95% # Type of FU issued
system.switch_cpus0.iq.FU_type_0::MemWrite     29627873      8.05%    100.00% # Type of FU issued
system.switch_cpus0.iq.FU_type_0::FloatMemRead            0      0.00%    100.00% # Type of FU issued
system.switch_cpus0.iq.FU_type_0::FloatMemWrite            0      0.00%    100.00% # Type of FU issued
system.switch_cpus0.iq.FU_type_0::IprAccess            0      0.00%    100.00% # Type of FU issued
system.switch_cpus0.iq.FU_type_0::InstPrefetch            0      0.00%    100.00% # Type of FU issued
system.switch_cpus0.iq.FU_type_0::total     368023999                       # Type of FU issued
system.switch_cpus0.iq.fp_alu_accesses              0                       # Number of floating point alu accesses
system.switch_cpus0.iq.fp_inst_queue_reads            0                       # Number of floating instruction queue reads
system.switch_cpus0.iq.fp_inst_queue_wakeup_accesses            0                       # Number of floating instruction queue wakeup accesses
system.switch_cpus0.iq.fp_inst_queue_writes            0                       # Number of floating instruction queue writes
system.switch_cpus0.iq.fu_busy_cnt           11183235                       # FU busy when requested
system.switch_cpus0.iq.fu_busy_rate          0.030387                       # FU busy rate (busy events/executed inst)
system.switch_cpus0.iq.fu_full::No_OpClass            0      0.00%      0.00% # attempts to use FU when none available
system.switch_cpus0.iq.fu_full::IntAlu        7044541     62.99%     62.99% # attempts to use FU when none available
system.switch_cpus0.iq.fu_full::IntMult             0      0.00%     62.99% # attempts to use FU when none available
system.switch_cpus0.iq.fu_full::IntDiv              0      0.00%     62.99% # attempts to use FU when none available
system.switch_cpus0.iq.fu_full::FloatAdd            0      0.00%     62.99% # attempts to use FU when none available
system.switch_cpus0.iq.fu_full::FloatCmp            0      0.00%     62.99% # attempts to use FU when none available
system.switch_cpus0.iq.fu_full::FloatCvt            0      0.00%     62.99% # attempts to use FU when none available
system.switch_cpus0.iq.fu_full::FloatMult            0      0.00%     62.99% # attempts to use FU when none available
system.switch_cpus0.iq.fu_full::FloatMultAcc            0      0.00%     62.99% # attempts to use FU when none available
system.switch_cpus0.iq.fu_full::FloatDiv            0      0.00%     62.99% # attempts to use FU when none available
system.switch_cpus0.iq.fu_full::FloatMisc            0      0.00%     62.99% # attempts to use FU when none available
system.switch_cpus0.iq.fu_full::FloatSqrt            0      0.00%     62.99% # attempts to use FU when none available
system.switch_cpus0.iq.fu_full::SimdAdd             0      0.00%     62.99% # attempts to use FU when none available
system.switch_cpus0.iq.fu_full::SimdAddAcc            0      0.00%     62.99% # attempts to use FU when none available
system.switch_cpus0.iq.fu_full::SimdAlu             0      0.00%     62.99% # attempts to use FU when none available
system.switch_cpus0.iq.fu_full::SimdCmp             0      0.00%     62.99% # attempts to use FU when none available
system.switch_cpus0.iq.fu_full::SimdCvt             0      0.00%     62.99% # attempts to use FU when none available
system.switch_cpus0.iq.fu_full::SimdMisc            0      0.00%     62.99% # attempts to use FU when none available
system.switch_cpus0.iq.fu_full::SimdMult            0      0.00%     62.99% # attempts to use FU when none available
system.switch_cpus0.iq.fu_full::SimdMultAcc            0      0.00%     62.99% # attempts to use FU when none available
system.switch_cpus0.iq.fu_full::SimdShift            0      0.00%     62.99% # attempts to use FU when none available
system.switch_cpus0.iq.fu_full::SimdShiftAcc            0      0.00%     62.99% # attempts to use FU when none available
system.switch_cpus0.iq.fu_full::SimdDiv             0      0.00%     62.99% # attempts to use FU when none available
system.switch_cpus0.iq.fu_full::SimdSqrt            0      0.00%     62.99% # attempts to use FU when none available
system.switch_cpus0.iq.fu_full::SimdFloatAdd            0      0.00%     62.99% # attempts to use FU when none available
system.switch_cpus0.iq.fu_full::SimdFloatAlu            0      0.00%     62.99% # attempts to use FU when none available
system.switch_cpus0.iq.fu_full::SimdFloatCmp            0      0.00%     62.99% # attempts to use FU when none available
system.switch_cpus0.iq.fu_full::SimdFloatCvt            0      0.00%     62.99% # attempts to use FU when none available
system.switch_cpus0.iq.fu_full::SimdFloatDiv            0      0.00%     62.99% # attempts to use FU when none available
system.switch_cpus0.iq.fu_full::SimdFloatMisc            0      0.00%     62.99% # attempts to use FU when none available
system.switch_cpus0.iq.fu_full::SimdFloatMult            0      0.00%     62.99% # attempts to use FU when none available
system.switch_cpus0.iq.fu_full::SimdFloatMultAcc            0      0.00%     62.99% # attempts to use FU when none available
system.switch_cpus0.iq.fu_full::SimdFloatSqrt            0      0.00%     62.99% # attempts to use FU when none available
system.switch_cpus0.iq.fu_full::SimdReduceAdd            0      0.00%     62.99% # attempts to use FU when none available
system.switch_cpus0.iq.fu_full::SimdReduceAlu            0      0.00%     62.99% # attempts to use FU when none available
system.switch_cpus0.iq.fu_full::SimdReduceCmp            0      0.00%     62.99% # attempts to use FU when none available
system.switch_cpus0.iq.fu_full::SimdFloatReduceAdd            0      0.00%     62.99% # attempts to use FU when none available
system.switch_cpus0.iq.fu_full::SimdFloatReduceCmp            0      0.00%     62.99% # attempts to use FU when none available
system.switch_cpus0.iq.fu_full::SimdAes             0      0.00%     62.99% # attempts to use FU when none available
system.switch_cpus0.iq.fu_full::SimdAesMix            0      0.00%     62.99% # attempts to use FU when none available
system.switch_cpus0.iq.fu_full::SimdSha1Hash            0      0.00%     62.99% # attempts to use FU when none available
system.switch_cpus0.iq.fu_full::SimdSha1Hash2            0      0.00%     62.99% # attempts to use FU when none available
system.switch_cpus0.iq.fu_full::SimdSha256Hash            0      0.00%     62.99% # attempts to use FU when none available
system.switch_cpus0.iq.fu_full::SimdSha256Hash2            0      0.00%     62.99% # attempts to use FU when none available
system.switch_cpus0.iq.fu_full::SimdShaSigma2            0      0.00%     62.99% # attempts to use FU when none available
system.switch_cpus0.iq.fu_full::SimdShaSigma3            0      0.00%     62.99% # attempts to use FU when none available
system.switch_cpus0.iq.fu_full::SimdPredAlu            0      0.00%     62.99% # attempts to use FU when none available
system.switch_cpus0.iq.fu_full::MemRead       3430891     30.68%     93.67% # attempts to use FU when none available
system.switch_cpus0.iq.fu_full::MemWrite       707803      6.33%    100.00% # attempts to use FU when none available
system.switch_cpus0.iq.fu_full::FloatMemRead            0      0.00%    100.00% # attempts to use FU when none available
system.switch_cpus0.iq.fu_full::FloatMemWrite            0      0.00%    100.00% # attempts to use FU when none available
system.switch_cpus0.iq.fu_full::IprAccess            0      0.00%    100.00% # attempts to use FU when none available
system.switch_cpus0.iq.fu_full::InstPrefetch            0      0.00%    100.00% # attempts to use FU when none available
system.switch_cpus0.iq.int_alu_accesses     378418583                       # Number of integer alu accesses
system.switch_cpus0.iq.int_inst_queue_reads    832581731                       # Number of integer instruction queue reads
system.switch_cpus0.iq.int_inst_queue_wakeup_accesses    361303285                       # Number of integer instruction queue wakeup accesses
system.switch_cpus0.iq.int_inst_queue_writes    475767124                       # Number of integer instruction queue writes
system.switch_cpus0.iq.iqInstsAdded         392510062                       # Number of instructions added to the IQ (excludes non-spec)
system.switch_cpus0.iq.iqInstsIssued        368023999                       # Number of instructions issued
system.switch_cpus0.iq.iqSquashedInstsExamined     83235064                       # Number of squashed instructions iterated over during squash; mainly for profiling
system.switch_cpus0.iq.iqSquashedInstsIssued       824742                       # Number of squashed instructions issued
system.switch_cpus0.iq.iqSquashedOperandsExamined    106378834                       # Number of squashed operands that are examined and possibly removed from graph
system.switch_cpus0.iq.issued_per_cycle::samples     84525760                       # Number of insts issued each cycle
system.switch_cpus0.iq.issued_per_cycle::mean     4.353986                       # Number of insts issued each cycle
system.switch_cpus0.iq.issued_per_cycle::stdev     2.812244                       # Number of insts issued each cycle
system.switch_cpus0.iq.issued_per_cycle::underflows            0      0.00%      0.00% # Number of insts issued each cycle
system.switch_cpus0.iq.issued_per_cycle::0     17442523     20.64%     20.64% # Number of insts issued each cycle
system.switch_cpus0.iq.issued_per_cycle::1      2420996      2.86%     23.50% # Number of insts issued each cycle
system.switch_cpus0.iq.issued_per_cycle::2      3547637      4.20%     27.70% # Number of insts issued each cycle
system.switch_cpus0.iq.issued_per_cycle::3      5702093      6.75%     34.44% # Number of insts issued each cycle
system.switch_cpus0.iq.issued_per_cycle::4      8375573      9.91%     44.35% # Number of insts issued each cycle
system.switch_cpus0.iq.issued_per_cycle::5      9436887     11.16%     55.52% # Number of insts issued each cycle
system.switch_cpus0.iq.issued_per_cycle::6     13940947     16.49%     72.01% # Number of insts issued each cycle
system.switch_cpus0.iq.issued_per_cycle::7     12203791     14.44%     86.45% # Number of insts issued each cycle
system.switch_cpus0.iq.issued_per_cycle::8     11455313     13.55%    100.00% # Number of insts issued each cycle
system.switch_cpus0.iq.issued_per_cycle::overflows            0      0.00%    100.00% # Number of insts issued each cycle
system.switch_cpus0.iq.issued_per_cycle::min_value            0                       # Number of insts issued each cycle
system.switch_cpus0.iq.issued_per_cycle::max_value            8                       # Number of insts issued each cycle
system.switch_cpus0.iq.issued_per_cycle::total     84525760                       # Number of insts issued each cycle
system.switch_cpus0.iq.rate                  4.351004                       # Inst issue rate
system.switch_cpus0.iq.vec_alu_accesses             0                       # Number of vector alu accesses
system.switch_cpus0.iq.vec_inst_queue_reads            0                       # Number of vector instruction queue reads
system.switch_cpus0.iq.vec_inst_queue_wakeup_accesses            0                       # Number of vector instruction queue wakeup accesses
system.switch_cpus0.iq.vec_inst_queue_writes            0                       # Number of vector instruction queue writes
system.switch_cpus0.memDep0.conflictingLoads     16914784                       # Number of conflicting loads.
system.switch_cpus0.memDep0.conflictingStores     10244346                       # Number of conflicting stores.
system.switch_cpus0.memDep0.insertedLoads     84720451                       # Number of loads inserted to the mem dependence unit.
system.switch_cpus0.memDep0.insertedStores     33449244                       # Number of stores inserted to the mem dependence unit.
system.switch_cpus0.misc_regfile_reads      174428728                       # number of misc regfile reads
system.switch_cpus0.misc_regfile_writes             1                       # number of misc regfile writes
system.switch_cpus0.numCycles                84583695                       # number of cpu cycles simulated
system.switch_cpus0.numWorkItemsCompleted            0                       # number of work items this cpu completed
system.switch_cpus0.numWorkItemsStarted             0                       # number of work items this cpu started
system.switch_cpus0.timesIdled                    239                       # Number of times that the entire CPU went into an idle state and unscheduled itself
system.switch_cpus1.cc_regfile_reads        111982161                       # number of cc regfile reads
system.switch_cpus1.cc_regfile_writes        75564646                       # number of cc regfile writes
system.switch_cpus1.committedInsts          226417728                       # Number of Instructions Simulated
system.switch_cpus1.committedOps            395490812                       # Number of Ops (including micro ops) Simulated
system.switch_cpus1.cpi                      0.373574                       # CPI: Cycles Per Instruction
system.switch_cpus1.cpi_total                0.373574                       # CPI: Total CPI of All Threads
system.switch_cpus1.fp_regfile_reads        311879850                       # number of floating regfile reads
system.switch_cpus1.fp_regfile_writes       171190441                       # number of floating regfile writes
system.switch_cpus1.idleCycles                  98949                       # Total number of cycles that the CPU has spent unscheduled due to idling
system.switch_cpus1.iew.branchMispredicts         3730                       # Number of branch mispredicts detected at execute
system.switch_cpus1.iew.exec_branches        24102939                       # Number of branches executed
system.switch_cpus1.iew.exec_nop                    0                       # number of nop insts executed
system.switch_cpus1.iew.exec_rate            4.677148                       # Inst execution rate
system.switch_cpus1.iew.exec_refs            79290335                       # number of memory reference insts executed
system.switch_cpus1.iew.exec_stores          21118023                       # Number of stores executed
system.switch_cpus1.iew.exec_swp                    0                       # number of swp insts executed
system.switch_cpus1.iew.iewBlockCycles         978933                       # Number of cycles IEW is blocking
system.switch_cpus1.iew.iewDispLoadInsts     58186261                       # Number of dispatched load instructions
system.switch_cpus1.iew.iewDispNonSpecInsts            4                       # Number of dispatched non-speculative instructions
system.switch_cpus1.iew.iewDispSquashedInsts          950                       # Number of squashed instructions skipped by dispatch
system.switch_cpus1.iew.iewDispStoreInsts     21131781                       # Number of dispatched store instructions
system.switch_cpus1.iew.iewDispatchedInsts    395707582                       # Number of instructions dispatched to IQ
system.switch_cpus1.iew.iewExecLoadInsts     58172312                       # Number of load instructions executed
system.switch_cpus1.iew.iewExecSquashedInsts        14007                       # Number of squashed instructions skipped in execute
system.switch_cpus1.iew.iewExecutedInsts    395610455                       # Number of executed instructions
system.switch_cpus1.iew.iewIQFullEvents          8831                       # Number of times the IQ has become full, causing a stall
system.switch_cpus1.iew.iewIdleCycles               0                       # Number of cycles IEW is idle
system.switch_cpus1.iew.iewLSQFullEvents      1397218                       # Number of times the LSQ has become full, causing a stall
system.switch_cpus1.iew.iewSquashCycles          5660                       # Number of cycles IEW is squashing
system.switch_cpus1.iew.iewUnblockCycles      1413258                       # Number of cycles IEW is unblocking
system.switch_cpus1.iew.memOrderViolationEvents         2434                       # Number of memory order violations
system.switch_cpus1.iew.predictedNotTakenIncorrect         2310                       # Number of branches that were predicted not taken incorrectly
system.switch_cpus1.iew.predictedTakenIncorrect         1420                       # Number of branches that were predicted taken incorrectly
system.switch_cpus1.iew.wb_consumers        523538699                       # num instructions consuming a value
system.switch_cpus1.iew.wb_count            395600763                       # cumulative count of insts written-back
system.switch_cpus1.iew.wb_fanout            0.577697                       # average fanout of values written-back
system.switch_cpus1.iew.wb_producers        302446872                       # num instructions producing a value
system.switch_cpus1.iew.wb_rate              4.677033                       # insts written-back per cycle
system.switch_cpus1.iew.wb_sent             395604611                       # cumulative count of insts sent to commit
system.switch_cpus1.int_regfile_reads       353416918                       # number of integer regfile reads
system.switch_cpus1.int_regfile_writes      172276562                       # number of integer regfile writes
system.switch_cpus1.ipc                      2.676848                       # IPC: Instructions Per Cycle
system.switch_cpus1.ipc_total                2.676848                       # IPC: Total IPC of All Threads
system.switch_cpus1.iq.FU_type_0::No_OpClass         4618      0.00%      0.00% # Type of FU issued
system.switch_cpus1.iq.FU_type_0::IntAlu    212439065     53.70%     53.70% # Type of FU issued
system.switch_cpus1.iq.FU_type_0::IntMult        13302      0.00%     53.70% # Type of FU issued
system.switch_cpus1.iq.FU_type_0::IntDiv            0      0.00%     53.70% # Type of FU issued
system.switch_cpus1.iq.FU_type_0::FloatAdd     18390464      4.65%     58.35% # Type of FU issued
system.switch_cpus1.iq.FU_type_0::FloatCmp            0      0.00%     58.35% # Type of FU issued
system.switch_cpus1.iq.FU_type_0::FloatCvt           10      0.00%     58.35% # Type of FU issued
system.switch_cpus1.iq.FU_type_0::FloatMult            0      0.00%     58.35% # Type of FU issued
system.switch_cpus1.iq.FU_type_0::FloatMultAcc            0      0.00%     58.35% # Type of FU issued
system.switch_cpus1.iq.FU_type_0::FloatDiv            0      0.00%     58.35% # Type of FU issued
system.switch_cpus1.iq.FU_type_0::FloatMisc            0      0.00%     58.35% # Type of FU issued
system.switch_cpus1.iq.FU_type_0::FloatSqrt            0      0.00%     58.35% # Type of FU issued
system.switch_cpus1.iq.FU_type_0::SimdAdd            0      0.00%     58.35% # Type of FU issued
system.switch_cpus1.iq.FU_type_0::SimdAddAcc            0      0.00%     58.35% # Type of FU issued
system.switch_cpus1.iq.FU_type_0::SimdAlu     11904680      3.01%     61.36% # Type of FU issued
system.switch_cpus1.iq.FU_type_0::SimdCmp            0      0.00%     61.36% # Type of FU issued
system.switch_cpus1.iq.FU_type_0::SimdCvt            0      0.00%     61.36% # Type of FU issued
system.switch_cpus1.iq.FU_type_0::SimdMisc      6903591      1.74%     63.10% # Type of FU issued
system.switch_cpus1.iq.FU_type_0::SimdMult            0      0.00%     63.10% # Type of FU issued
system.switch_cpus1.iq.FU_type_0::SimdMultAcc            0      0.00%     63.10% # Type of FU issued
system.switch_cpus1.iq.FU_type_0::SimdShift            0      0.00%     63.10% # Type of FU issued
system.switch_cpus1.iq.FU_type_0::SimdShiftAcc            0      0.00%     63.10% # Type of FU issued
system.switch_cpus1.iq.FU_type_0::SimdDiv            0      0.00%     63.10% # Type of FU issued
system.switch_cpus1.iq.FU_type_0::SimdSqrt            0      0.00%     63.10% # Type of FU issued
system.switch_cpus1.iq.FU_type_0::SimdFloatAdd     33507367      8.47%     71.57% # Type of FU issued
system.switch_cpus1.iq.FU_type_0::SimdFloatAlu            0      0.00%     71.57% # Type of FU issued
system.switch_cpus1.iq.FU_type_0::SimdFloatCmp       143185      0.04%     71.61% # Type of FU issued
system.switch_cpus1.iq.FU_type_0::SimdFloatCvt      7856025      1.99%     73.60% # Type of FU issued
system.switch_cpus1.iq.FU_type_0::SimdFloatDiv      2290386      0.58%     74.17% # Type of FU issued
system.switch_cpus1.iq.FU_type_0::SimdFloatMisc            0      0.00%     74.17% # Type of FU issued
system.switch_cpus1.iq.FU_type_0::SimdFloatMult     22651726      5.73%     79.90% # Type of FU issued
system.switch_cpus1.iq.FU_type_0::SimdFloatMultAcc            0      0.00%     79.90% # Type of FU issued
system.switch_cpus1.iq.FU_type_0::SimdFloatSqrt       223336      0.06%     79.96% # Type of FU issued
system.switch_cpus1.iq.FU_type_0::SimdReduceAdd            0      0.00%     79.96% # Type of FU issued
system.switch_cpus1.iq.FU_type_0::SimdReduceAlu            0      0.00%     79.96% # Type of FU issued
system.switch_cpus1.iq.FU_type_0::SimdReduceCmp            0      0.00%     79.96% # Type of FU issued
system.switch_cpus1.iq.FU_type_0::SimdFloatReduceAdd            0      0.00%     79.96% # Type of FU issued
system.switch_cpus1.iq.FU_type_0::SimdFloatReduceCmp            0      0.00%     79.96% # Type of FU issued
system.switch_cpus1.iq.FU_type_0::SimdAes            0      0.00%     79.96% # Type of FU issued
system.switch_cpus1.iq.FU_type_0::SimdAesMix            0      0.00%     79.96% # Type of FU issued
system.switch_cpus1.iq.FU_type_0::SimdSha1Hash            0      0.00%     79.96% # Type of FU issued
system.switch_cpus1.iq.FU_type_0::SimdSha1Hash2            0      0.00%     79.96% # Type of FU issued
[...]
system.switch_cpus3.commit.numCommittedDist::0     28377682     39.50%     39.50% # Number of insts commited each cycle
system.switch_cpus3.commit.numCommittedDist::1     16789171     23.37%     62.87% # Number of insts commited each cycle
system.switch_cpus3.commit.numCommittedDist::2      3715754      5.17%     68.04% # Number of insts commited each cycle
system.switch_cpus3.commit.numCommittedDist::3      9541615     13.28%     81.32% # Number of insts commited each cycle
system.switch_cpus3.commit.numCommittedDist::4      3216036      4.48%     85.80% # Number of insts commited each cycle
system.switch_cpus3.commit.numCommittedDist::5      1772713      2.47%     88.27% # Number of insts commited each cycle
system.switch_cpus3.commit.numCommittedDist::6       781181      1.09%     89.35% # Number of insts commited each cycle
system.switch_cpus3.commit.numCommittedDist::7       681416      0.95%     90.30% # Number of insts commited each cycle
system.switch_cpus3.commit.numCommittedDist::8      6966895      9.70%    100.00% # Number of insts commited each cycle
system.switch_cpus3.commit.numCommittedDist::overflows            0      0.00%    100.00% # Number of insts commited each cycle
system.switch_cpus3.commit.numCommittedDist::min_value            0                       # Number of insts commited each cycle
system.switch_cpus3.commit.numCommittedDist::max_value            8                       # Number of insts commited each cycle
system.switch_cpus3.commit.numCommittedDist::total     71842463                       # Number of insts commited each cycle
system.switch_cpus3.commit.instsCommitted     96287874                       # Number of instructions committed
system.switch_cpus3.commit.opsCommitted     139765391                       # Number of ops (including micro ops) committed
system.switch_cpus3.commit.memRefs           20529407                       # Number of memory references committed
system.switch_cpus3.commit.loads             14322404                       # Number of loads committed
system.switch_cpus3.commit.amos                     0                       # Number of atomic instructions committed
system.switch_cpus3.commit.membars                  0                       # Number of memory barriers committed
system.switch_cpus3.commit.branches          11433609                       # Number of branches committed
system.switch_cpus3.commit.vector                   0                       # Number of committed Vector instructions.
system.switch_cpus3.commit.floating            503314                       # Number of committed floating point instructions.
system.switch_cpus3.commit.integer          139764861                       # Number of committed integer instructions.
system.switch_cpus3.commit.functionCalls        28135                       # Number of function calls committed.
system.switch_cpus3.commit.committedInstType_0::No_OpClass          245      0.00%      0.00% # Class of committed instruction
system.switch_cpus3.commit.committedInstType_0::IntAlu    115782088     82.84%     82.84% # Class of committed instruction
system.switch_cpus3.commit.committedInstType_0::IntMult      3453651      2.47%     85.31% # Class of committed instruction
system.switch_cpus3.commit.committedInstType_0::IntDiv            0      0.00%     85.31% # Class of committed instruction
system.switch_cpus3.commit.committedInstType_0::FloatAdd            0      0.00%     85.31% # Class of committed instruction
system.switch_cpus3.commit.committedInstType_0::FloatCmp            0      0.00%     85.31% # Class of committed instruction
system.switch_cpus3.commit.committedInstType_0::FloatCvt            0      0.00%     85.31% # Class of committed instruction
system.switch_cpus3.commit.committedInstType_0::FloatMult            0      0.00%     85.31% # Class of committed instruction
system.switch_cpus3.commit.committedInstType_0::FloatMultAcc            0      0.00%     85.31% # Class of committed instruction
system.switch_cpus3.commit.committedInstType_0::FloatDiv            0      0.00%     85.31% # Class of committed instruction
system.switch_cpus3.commit.committedInstType_0::FloatMisc            0      0.00%     85.31% # Class of committed instruction
system.switch_cpus3.commit.committedInstType_0::FloatSqrt            0      0.00%     85.31% # Class of committed instruction
system.switch_cpus3.commit.committedInstType_0::SimdAdd            0      0.00%     85.31% # Class of committed instruction
system.switch_cpus3.commit.committedInstType_0::SimdAddAcc            0      0.00%     85.31% # Class of committed instruction
system.switch_cpus3.commit.committedInstType_0::SimdAlu            0      0.00%     85.31% # Class of committed instruction
system.switch_cpus3.commit.committedInstType_0::SimdCmp            0      0.00%     85.31% # Class of committed instruction
system.switch_cpus3.commit.committedInstType_0::SimdCvt            0      0.00%     85.31% # Class of committed instruction
system.switch_cpus3.commit.committedInstType_0::SimdMisc            0      0.00%     85.31% # Class of committed instruction
system.switch_cpus3.commit.committedInstType_0::SimdMult            0      0.00%     85.31% # Class of committed instruction
system.switch_cpus3.commit.committedInstType_0::SimdMultAcc            0      0.00%     85.31% # Class of committed instruction
system.switch_cpus3.commit.committedInstType_0::SimdShift            0      0.00%     85.31% # Class of committed instruction
system.switch_cpus3.commit.committedInstType_0::SimdShiftAcc            0      0.00%     85.31% # Class of committed instruction
system.switch_cpus3.commit.committedInstType_0::SimdDiv            0      0.00%     85.31% # Class of committed instruction
system.switch_cpus3.commit.committedInstType_0::SimdSqrt            0      0.00%     85.31% # Class of committed instruction
system.switch_cpus3.commit.committedInstType_0::SimdFloatAdd            0      0.00%     85.31% # Class of committed instruction
system.switch_cpus3.commit.committedInstType_0::SimdFloatAlu            0      0.00%     85.31% # Class of committed instruction
system.switch_cpus3.commit.committedInstType_0::SimdFloatCmp            0      0.00%     85.31% # Class of committed instruction
system.switch_cpus3.commit.committedInstType_0::SimdFloatCvt            0      0.00%     85.31% # Class of committed instruction
system.switch_cpus3.commit.committedInstType_0::SimdFloatDiv            0      0.00%     85.31% # Class of committed instruction
system.switch_cpus3.commit.committedInstType_0::SimdFloatMisc            0      0.00%     85.31% # Class of committed instruction
system.switch_cpus3.commit.committedInstType_0::SimdFloatMult            0      0.00%     85.31% # Class of committed instruction
system.switch_cpus3.commit.committedInstType_0::SimdFloatMultAcc            0      0.00%     85.31% # Class of committed instruction
system.switch_cpus3.commit.committedInstType_0::SimdFloatSqrt            0      0.00%     85.31% # Class of committed instruction
system.switch_cpus3.commit.committedInstType_0::SimdReduceAdd            0      0.00%     85.31% # Class of committed instruction
system.switch_cpus3.commit.committedInstType_0::SimdReduceAlu            0      0.00%     85.31% # Class of committed instruction
system.switch_cpus3.commit.committedInstType_0::SimdReduceCmp            0      0.00%     85.31% # Class of committed instruction
system.switch_cpus3.commit.committedInstType_0::SimdFloatReduceAdd            0      0.00%     85.31% # Class of committed instruction
system.switch_cpus3.commit.committedInstType_0::SimdFloatReduceCmp            0      0.00%     85.31% # Class of committed instruction
system.switch_cpus3.commit.committedInstType_0::SimdAes            0      0.00%     85.31% # Class of committed instruction
system.switch_cpus3.commit.committedInstType_0::SimdAesMix            0      0.00%     85.31% # Class of committed instruction
system.switch_cpus3.commit.committedInstType_0::SimdSha1Hash            0      0.00%     85.31% # Class of committed instruction
system.switch_cpus3.commit.committedInstType_0::SimdSha1Hash2            0      0.00%     85.31% # Class of committed instruction
system.switch_cpus3.commit.committedInstType_0::SimdSha256Hash            0      0.00%     85.31% # Class of committed instruction
system.switch_cpus3.commit.committedInstType_0::SimdSha256Hash2            0      0.00%     85.31% # Class of committed instruction
system.switch_cpus3.commit.committedInstType_0::SimdShaSigma2            0      0.00%     85.31% # Class of committed instruction
system.switch_cpus3.commit.committedInstType_0::SimdShaSigma3            0      0.00%     85.31% # Class of committed instruction
system.switch_cpus3.commit.committedInstType_0::SimdPredAlu            0      0.00%     85.31% # Class of committed instruction
system.switch_cpus3.commit.committedInstType_0::MemRead     14070756     10.07%     95.38% # Class of committed instruction
system.switch_cpus3.commit.committedInstType_0::MemWrite      5955337      4.26%     99.64% # Class of committed instruction
system.switch_cpus3.commit.committedInstType_0::FloatMemRead       251648      0.18%     99.82% # Class of committed instruction
system.switch_cpus3.commit.committedInstType_0::FloatMemWrite       251666      0.18%    100.00% # Class of committed instruction
system.switch_cpus3.commit.committedInstType_0::IprAccess            0      0.00%    100.00% # Class of committed instruction
system.switch_cpus3.commit.committedInstType_0::InstPrefetch            0      0.00%    100.00% # Class of committed instruction
system.switch_cpus3.commit.committedInstType_0::total    139765391                       # Class of committed instruction
system.switch_cpus3.commit.commitEligibleSamples      6966895                       # number cycles where commit BW limit reached
system.switch_cpus3.decode.idleCycles         7268295                       # Number of cycles decode is idle
system.switch_cpus3.decode.blockedCycles     40526059                       # Number of cycles decode is blocked
system.switch_cpus3.decode.runCycles         23764717                       # Number of cycles decode is running
system.switch_cpus3.decode.unblockCycles     11707341                       # Number of cycles decode is unblocking
system.switch_cpus3.decode.squashCycles       1259207                       # Number of cycles decode is squashing
system.switch_cpus3.decode.branchResolved     14182416                       # Number of times decode resolved a  branch
system.switch_cpus3.decode.branchMispred         1664                       # Number of times decode detected a branch misprediction
system.switch_cpus3.decode.decodedInsts     256751259                       # Number of instructions handled by decode
system.switch_cpus3.decode.squashedInsts         4402                       # Number of squashed instructions handled by decode
system.switch_cpus3.dtb.rdAccesses           22965594                       # TLB accesses on read requests
system.switch_cpus3.dtb.wrAccesses           10272097                       # TLB accesses on write requests
system.switch_cpus3.dtb.rdMisses                13951                       # TLB misses on read requests
system.switch_cpus3.dtb.wrMisses                  685                       # TLB misses on write requests
system.switch_cpus3.dtb.walker.power_state.pwrStateResidencyTicks::UNDEFINED 14978612499561                       # Cumulative time (in ticks) in various power states
system.switch_cpus3.fetch.icacheStallCycles      1151837                       # Number of cycles fetch is stalled on an Icache miss
system.switch_cpus3.fetch.insts             195621692                       # Number of instructions fetch has processed
system.switch_cpus3.fetch.branches           22801323                       # Number of branches that fetch encountered
system.switch_cpus3.fetch.predictedBranches     15757495                       # Number of branches that fetch has predicted taken
system.switch_cpus3.fetch.cycles             82112900                       # Number of cycles fetch has run and was not squashing or blocked
system.switch_cpus3.fetch.squashCycles        2521712                       # Number of cycles fetch has spent squashing
system.switch_cpus3.fetch.miscStallCycles            4                       # Number of cycles fetch has spent waiting on interrupts,or bad addresses, or out of MSHRs
system.switch_cpus3.fetch.pendingTrapStallCycles           28                       # Number of stall cycles due to pending traps
system.switch_cpus3.fetch.cacheLines         26117465                       # Number of cache lines fetched
system.switch_cpus3.fetch.icacheSquashes          237                       # Number of outstanding Icache misses that were squashed
system.switch_cpus3.fetch.nisnDist::samples     84525625                       # Number of instructions fetched each cycle (Total)
system.switch_cpus3.fetch.nisnDist::mean     3.414298                       # Number of instructions fetched each cycle (Total)
system.switch_cpus3.fetch.nisnDist::stdev     3.358777                       # Number of instructions fetched each cycle (Total)
system.switch_cpus3.fetch.nisnDist::underflows            0      0.00%      0.00% # Number of instructions fetched each cycle (Total)
system.switch_cpus3.fetch.nisnDist::0        32024309     37.89%     37.89% # Number of instructions fetched each cycle (Total)
system.switch_cpus3.fetch.nisnDist::1         4827019      5.71%     43.60% # Number of instructions fetched each cycle (Total)
system.switch_cpus3.fetch.nisnDist::2         5635356      6.67%     50.26% # Number of instructions fetched each cycle (Total)
system.switch_cpus3.fetch.nisnDist::3         4247867      5.03%     55.29% # Number of instructions fetched each cycle (Total)
system.switch_cpus3.fetch.nisnDist::4         4532531      5.36%     60.65% # Number of instructions fetched each cycle (Total)
system.switch_cpus3.fetch.nisnDist::5         5411807      6.40%     67.06% # Number of instructions fetched each cycle (Total)
system.switch_cpus3.fetch.nisnDist::6         3221082      3.81%     70.87% # Number of instructions fetched each cycle (Total)
system.switch_cpus3.fetch.nisnDist::7         1766525      2.09%     72.96% # Number of instructions fetched each cycle (Total)
system.switch_cpus3.fetch.nisnDist::8        22859129     27.04%    100.00% # Number of instructions fetched each cycle (Total)
system.switch_cpus3.fetch.nisnDist::overflows            0      0.00%    100.00% # Number of instructions fetched each cycle (Total)
system.switch_cpus3.fetch.nisnDist::min_value            0                       # Number of instructions fetched each cycle (Total)
system.switch_cpus3.fetch.nisnDist::max_value            8                       # Number of instructions fetched each cycle (Total)
system.switch_cpus3.fetch.nisnDist::total     84525625                       # Number of instructions fetched each cycle (Total)
system.switch_cpus3.fetch.branchRate         0.269571                       # Number of branch fetches per cycle
system.switch_cpus3.fetch.rate               2.312759                       # Number of inst fetches per cycle
system.switch_cpus3.itb.rdAccesses                  0                       # TLB accesses on read requests
system.switch_cpus3.itb.wrAccesses           26117471                       # TLB accesses on write requests
system.switch_cpus3.itb.rdMisses                    0                       # TLB misses on read requests
system.switch_cpus3.itb.wrMisses                   25                       # TLB misses on write requests
system.switch_cpus3.itb.walker.power_state.pwrStateResidencyTicks::UNDEFINED 14978612499561                       # Cumulative time (in ticks) in various power states
system.switch_cpus3.lsq0.forwLoads            2760754                       # Number of loads that had data forwarded from stores
system.switch_cpus3.lsq0.squashedLoads       12519026                       # Number of loads squashed
system.switch_cpus3.lsq0.ignoredResponses         2435                       # Number of memory responses ignored because the instruction is squashed
system.switch_cpus3.lsq0.memOrderViolation         7734                       # Number of memory ordering violations
system.switch_cpus3.lsq0.squashedStores       8249341                       # Number of stores squashed
system.switch_cpus3.lsq0.rescheduledLoads            3                       # Number of loads that were rescheduled
system.switch_cpus3.lsq0.blockedByCache           127                       # Number of times an access to memory failed due to the cache being blocked
system.switch_cpus3.power_state.pwrStateResidencyTicks::OFF  28166380758                       # Cumulative time (in ticks) in various power states
system.switch_cpus3.rename.squashCycles       1259207                       # Number of cycles rename is squashing
system.switch_cpus3.rename.idleCycles        11900157                       # Number of cycles rename is idle
system.switch_cpus3.rename.blockCycles       18731329                       # Number of cycles rename is blocking
system.switch_cpus3.rename.serializeStallCycles            0                       # count of cycles rename stalledfor serializing inst
system.switch_cpus3.rename.runCycles         30634421                       # Number of cycles rename is running
system.switch_cpus3.rename.unblockCycles     22000505                       # Number of cycles rename is unblocking
system.switch_cpus3.rename.renamedInsts     249647172                       # Number of instructions processed by rename
system.switch_cpus3.rename.ROBFullEvents        12698                       # Number of times rename has blocked due to ROB full
system.switch_cpus3.rename.IQFullEvents      15797286                       # Number of times rename has blocked due to IQ full
system.switch_cpus3.rename.LQFullEvents         12682                       # Number of times rename has blocked due to LQ full
system.switch_cpus3.rename.SQFullEvents       4140275                       # Number of times rename has blocked due to SQ full
system.switch_cpus3.rename.renamedOperands    357818250                       # Number of destination operands rename has renamed
system.switch_cpus3.rename.lookups          640584812                       # Number of register rename lookups that rename has made
system.switch_cpus3.rename.intLookups       434312331                       # Number of integer rename lookups
system.switch_cpus3.rename.fpLookups          2562446                       # Number of floating rename lookups
system.switch_cpus3.rename.committedMaps    205755362                       # Number of HB maps that are committed
system.switch_cpus3.rename.undoneMaps       152062789                       # Number of HB maps that are undone due to squashing
system.switch_cpus3.rename.serializing              0                       # count of serializing insts renamed
system.switch_cpus3.rename.tempSerializing            0                       # count of temporary serializing insts renamed
system.switch_cpus3.rename.skidInsts         47826633                       # count of insts added to the skid buffer
system.switch_cpus3.rob.reads               300133291                       # The number of ROB reads
system.switch_cpus3.rob.writes              485872636                       # The number of ROB writes
system.switch_cpus3.thread0.numInsts         96287874                       # Number of Instructions committed
system.switch_cpus3.thread0.numOps          139765391                       # Number of Ops committed
system.switch_cpus3.thread0.numMemRefs              0                       # Number of Memory References
system.voltage_domain.voltage                       1                       # Voltage in Volts

---------- End Simulation Statistics   ----------
