
---------- Begin Simulation Statistics ----------
final_tick                               14978610780615                       # Number of ticks from beginning of simulation (restored from checkpoints and never reset)
host_inst_rate                                 145110                       # Simulator instruction rate (inst/s)
host_mem_usage                               17297960                       # Number of bytes of host memory used
host_op_rate                                   251985                       # Simulator op (including micro ops) rate (op/s)
host_seconds                                  5030.53                       # Real time elapsed on the host
host_tick_rate                                5598736                       # Simulator tick rate (ticks/s)
sim_freq                                 1000000000000                       # Frequency of simulated ticks
sim_insts                                   729978429                       # Number of instructions simulated
sim_ops                                    1267615606                       # Number of ops (including micro ops) simulated
sim_seconds                                  0.028165                       # Number of seconds simulated
sim_ticks                                 28164598542                       # Number of ticks simulated
system.cpu0.Branches                                3                       # Number of branches fetched
system.cpu0.committedInsts                         13                       # Number of instructions committed
system.cpu0.committedOps                           26                       # Number of ops (including micro ops) committed
system.cpu0.idle_fraction                           0                       # Percentage of idle cycles
system.cpu0.l2bus.snoop_filter.hit_multi_requests            0                       # Number of requests hitting in the snoop filter with multiple (>1) holders of the requested data.
system.cpu0.l2bus.snoop_filter.hit_multi_snoops            0                       # Number of snoops hitting in the snoop filter with multiple (>1) holders of the requested data.
system.cpu0.l2bus.snoop_filter.hit_single_requests            1                       # Number of requests hitting in the snoop filter with a single holder of the requested data.
system.cpu0.l2bus.snoop_filter.hit_single_snoops            0                       # Number of snoops hitting in the snoop filter with a single holder of the requested data.
system.cpu0.l2bus.snoop_filter.tot_requests          562                       # Total number of requests made to the snoop filter.
system.cpu0.l2bus.snoop_filter.tot_snoops            0                       # Total number of snoops made to the snoop filter.
system.cpu0.mmucache.mmubus.snoop_filter.hit_multi_requests            0                       # Number of requests hitting in the snoop filter with multiple (>1) holders of the requested data.
system.cpu0.mmucache.mmubus.snoop_filter.hit_multi_snoops            0                       # Number of snoops hitting in the snoop filter with multiple (>1) holders of the requested data.
system.cpu0.mmucache.mmubus.snoop_filter.hit_single_requests            0                       # Number of requests hitting in the snoop filter with a single holder of the requested data.
system.cpu0.mmucache.mmubus.snoop_filter.hit_single_snoops            0                       # Number of snoops hitting in the snoop filter with a single holder of the requested data.
system.cpu0.mmucache.mmubus.snoop_filter.tot_requests            0                       # Total number of requests made to the snoop filter.
system.cpu0.mmucache.mmubus.snoop_filter.tot_snoops            0                       # Total number of snoops made to the snoop filter.
system.cpu0.not_idle_fraction                       1                       # Percentage of non-idle cycles
system.cpu0.numCycles                              30                       # number of cpu cycles simulated
system.cpu0.numWorkItemsCompleted                   0                       # number of work items this cpu completed
system.cpu0.numWorkItemsStarted                     0                       # number of work items this cpu started
system.cpu0.num_busy_cycles                        30                       # Number of busy cycles
system.cpu0.num_cc_register_reads                  12                       # number of times the CC registers were read
system.cpu0.num_cc_register_writes                 10                       # number of times the CC registers were written
system.cpu0.num_conditional_control_insts            2                       # number of instructions that are conditional controls
system.cpu0.num_fp_alu_accesses                     0                       # Number of float alu accesses
system.cpu0.num_fp_insts                            0                       # number of float instructions
system.cpu0.num_fp_register_reads                   0                       # number of times the floating registers were read
system.cpu0.num_fp_register_writes                  0                       # number of times the floating registers were written
system.cpu0.num_func_calls                          0                       # number of times a function call or return occured
system.cpu0.num_idle_cycles                         0                       # Number of idle cycles
system.cpu0.num_int_alu_accesses                   25                       # Number of integer alu accesses
system.cpu0.num_int_insts                          25                       # number of integer instructions
system.cpu0.num_int_register_reads                 43                       # number of times the integer registers were read
system.cpu0.num_int_register_writes                21                       # number of times the integer registers were written
system.cpu0.num_load_insts                          2                       # Number of load instructions
system.cpu0.num_mem_refs                            3                       # number of memory refs
system.cpu0.num_store_insts                         1                       # Number of store instructions
system.cpu0.num_vec_alu_accesses                    0                       # Number of vector alu accesses
system.cpu0.num_vec_insts                           0                       # number of vector instructions
system.cpu0.num_vec_register_reads                  0                       # number of times the vector registers were read
system.cpu0.num_vec_register_writes                 0                       # number of times the vector registers were written
system.cpu0.op_class::No_OpClass                    1      3.85%      3.85% # Class of executed instruction
system.cpu0.op_class::IntAlu                       22     84.62%     88.46% # Class of executed instruction
system.cpu0.op_class::IntMult                       0      0.00%     88.46% # Class of executed instruction
system.cpu0.op_class::IntDiv                        0      0.00%     88.46% # Class of executed instruction
system.cpu0.op_class::FloatAdd                      0      0.00%     88.46% # Class of executed instruction
system.cpu0.op_class::FloatCmp                      0      0.00%     88.46% # Class of executed instruction
system.cpu0.op_class::FloatCvt                      0      0.00%     88.46% # Class of executed instruction
system.cpu0.op_class::FloatMult                     0      0.00%     88.46% # Class of executed instruction
system.cpu0.op_class::FloatMultAcc                  0      0.00%     88.46% # Class of executed instruction
system.cpu0.op_class::FloatDiv                      0      0.00%     88.46% # Class of executed instruction
system.cpu0.op_class::FloatMisc                     0      0.00%     88.46% # Class of executed instruction
system.cpu0.op_class::FloatSqrt                     0      0.00%     88.46% # Class of executed instruction
system.cpu0.op_class::SimdAdd                       0      0.00%     88.46% # Class of executed instruction
system.cpu0.op_class::SimdAddAcc                    0      0.00%     88.46% # Class of executed instruction
system.cpu0.op_class::SimdAlu                       0      0.00%     88.46% # Class of executed instruction
system.cpu0.op_class::SimdCmp                       0      0.00%     88.46% # Class of executed instruction
system.cpu0.op_class::SimdCvt                       0      0.00%     88.46% # Class of executed instruction
system.cpu0.op_class::SimdMisc                      0      0.00%     88.46% # Class of executed instruction
system.cpu0.op_class::SimdMult                      0      0.00%     88.46% # Class of executed instruction
system.cpu0.op_class::SimdMultAcc                   0      0.00%     88.46% # Class of executed instruction
system.cpu0.op_class::SimdShift                     0      0.00%     88.46% # Class of executed instruction
system.cpu0.op_class::SimdShiftAcc                  0      0.00%     88.46% # Class of executed instruction
system.cpu0.op_class::SimdDiv                       0      0.00%     88.46% # Class of executed instruction
system.cpu0.op_class::SimdSqrt                      0      0.00%     88.46% # Class of executed instruction
system.cpu0.op_class::SimdFloatAdd                  0      0.00%     88.46% # Class of executed instruction
system.cpu0.op_class::SimdFloatAlu                  0      0.00%     88.46% # Class of executed instruction
system.cpu0.op_class::SimdFloatCmp                  0      0.00%     88.46% # Class of executed instruction
system.cpu0.op_class::SimdFloatCvt                  0      0.00%     88.46% # Class of executed instruction
system.cpu0.op_class::SimdFloatDiv                  0      0.00%     88.46% # Class of executed instruction
system.cpu0.op_class::SimdFloatMisc                 0      0.00%     88.46% # Class of executed instruction
system.cpu0.op_class::SimdFloatMult                 0      0.00%     88.46% # Class of executed instruction
system.cpu0.op_class::SimdFloatMultAcc              0      0.00%     88.46% # Class of executed instruction
system.cpu0.op_class::SimdFloatSqrt                 0      0.00%     88.46% # Class of executed instruction
system.cpu0.op_class::SimdReduceAdd                 0      0.00%     88.46% # Class of executed instruction
system.cpu0.op_class::SimdReduceAlu                 0      0.00%     88.46% # Class of executed instruction
system.cpu0.op_class::SimdReduceCmp                 0      0.00%     88.46% # Class of executed instruction
system.cpu0.op_class::SimdFloatReduceAdd            0      0.00%     88.46% # Class of executed instruction
system.cpu0.op_class::SimdFloatReduceCmp            0      0.00%     88.46% # Class of executed instruction
system.cpu0.op_class::SimdAes                       0      0.00%     88.46% # Class of executed instruction
system.cpu0.op_class::SimdAesMix                    0      0.00%     88.46% # Class of executed instruction
system.cpu0.op_class::SimdSha1Hash                  0      0.00%     88.46% # Class of executed instruction
system.cpu0.op_class::SimdSha1Hash2                 0      0.00%     88.46% # Class of executed instruction
system.cpu0.op_class::SimdSha256Hash                0      0.00%     88.46% # Class of executed instruction
system.cpu0.op_class::SimdSha256Hash2               0      0.00%     88.46% # Class of executed instruction
system.cpu0.op_class::SimdShaSigma2                 0      0.00%     88.46% # Class of executed instruction
system.cpu0.op_class::SimdShaSigma3                 0      0.00%     88.46% # Class of executed instruction
system.cpu0.op_class::SimdPredAlu                   0      0.00%     88.46% # Class of executed instruction
system.cpu0.op_class::MemRead                       2      7.69%     96.15% # Class of executed instruction
system.cpu0.op_class::MemWrite                      1      3.85%    100.00% # Class of executed instruction
system.cpu0.op_class::FloatMemRead                  0      0.00%    100.00% # Class of executed instruction
system.cpu0.op_class::FloatMemWrite                 0      0.00%    100.00% # Class of executed instruction
system.cpu0.op_class::IprAccess                     0      0.00%    100.00% # Class of executed instruction
system.cpu0.op_class::InstPrefetch                  0      0.00%    100.00% # Class of executed instruction
system.cpu0.op_class::total                        26                       # Class of executed instruction
system.cpu0.workload.numSyscalls                    0                       # Number of system calls
system.cpu1.Branches                                1                       # Number of branches fetched
system.cpu1.committedInsts                         16                       # Number of instructions committed
system.cpu1.committedOps                           22                       # Number of ops (including micro ops) committed
system.cpu1.idle_fraction                           0                       # Percentage of idle cycles
system.cpu1.l2bus.snoop_filter.hit_multi_requests            4                       # Number of requests hitting in the snoop filter with multiple (>1) holders of the requested data.
system.cpu1.l2bus.snoop_filter.hit_multi_snoops            0                       # Number of snoops hitting in the snoop filter with multiple (>1) holders of the requested data.
system.cpu1.l2bus.snoop_filter.hit_single_requests       692627                       # Number of requests hitting in the snoop filter with a single holder of the requested data.
system.cpu1.l2bus.snoop_filter.hit_single_snoops         1312                       # Number of snoops hitting in the snoop filter with a single holder of the requested data.
system.cpu1.l2bus.snoop_filter.tot_requests      1386203                       # Total number of requests made to the snoop filter.
system.cpu1.l2bus.snoop_filter.tot_snoops         1312                       # Total number of snoops made to the snoop filter.
system.cpu1.mmucache.mmubus.snoop_filter.hit_multi_requests            0                       # Number of requests hitting in the snoop filter with multiple (>1) holders of the requested data.
system.cpu1.mmucache.mmubus.snoop_filter.hit_multi_snoops            0                       # Number of snoops hitting in the snoop filter with multiple (>1) holders of the requested data.
system.cpu1.mmucache.mmubus.snoop_filter.hit_single_requests            0                       # Number of requests hitting in the snoop filter with a single holder of the requested data.
system.cpu1.mmucache.mmubus.snoop_filter.hit_single_snoops            0                       # Number of snoops hitting in the snoop filter with a single holder of the requested data.
system.cpu1.mmucache.mmubus.snoop_filter.tot_requests            0                       # Total number of requests made to the snoop filter.
system.cpu1.mmucache.mmubus.snoop_filter.tot_snoops            0                       # Total number of snoops made to the snoop filter.
system.cpu1.not_idle_fraction                       1                       # Percentage of non-idle cycles
system.cpu1.numCycles                              30                       # number of cpu cycles simulated
system.cpu1.numWorkItemsCompleted                   0                       # number of work items this cpu completed
system.cpu1.numWorkItemsStarted                     0                       # number of work items this cpu started
system.cpu1.num_busy_cycles                        30                       # Number of busy cycles
system.cpu1.num_cc_register_reads                   4                       # number of times the CC registers were read
system.cpu1.num_cc_register_writes                  8                       # number of times the CC registers were written
system.cpu1.num_conditional_control_insts            0                       # number of instructions that are conditional controls
system.cpu1.num_fp_alu_accesses                     8                       # Number of float alu accesses
system.cpu1.num_fp_insts                            8                       # number of float instructions
system.cpu1.num_fp_register_reads                   8                       # number of times the floating registers were read
system.cpu1.num_fp_register_writes                  7                       # number of times the floating registers were written
system.cpu1.num_func_calls                          0                       # number of times a function call or return occured
system.cpu1.num_idle_cycles                         0                       # Number of idle cycles
system.cpu1.num_int_alu_accesses                   17                       # Number of integer alu accesses
system.cpu1.num_int_insts                          17                       # number of integer instructions
system.cpu1.num_int_register_reads                 37                       # number of times the integer registers were read
system.cpu1.num_int_register_writes                12                       # number of times the integer registers were written
system.cpu1.num_load_insts                          2                       # Number of load instructions
system.cpu1.num_mem_refs                            4                       # number of memory refs
system.cpu1.num_store_insts                         2                       # Number of store instructions
system.cpu1.num_vec_alu_accesses                    0                       # Number of vector alu accesses
system.cpu1.num_vec_insts                           0                       # number of vector instructions
system.cpu1.num_vec_register_reads                  0                       # number of times the vector registers were read
system.cpu1.num_vec_register_writes                 0                       # number of times the vector registers were written
system.cpu1.op_class::No_OpClass                    0      0.00%      0.00% # Class of executed instruction
system.cpu1.op_class::IntAlu                       14     63.64%     63.64% # Class of executed instruction
system.cpu1.op_class::IntMult                       0      0.00%     63.64% # Class of executed instruction
system.cpu1.op_class::IntDiv                        0      0.00%     63.64% # Class of executed instruction
system.cpu1.op_class::FloatAdd                      2      9.09%     72.73% # Class of executed instruction
system.cpu1.op_class::FloatCmp                      0      0.00%     72.73% # Class of executed instruction
system.cpu1.op_class::FloatCvt                      0      0.00%     72.73% # Class of executed instruction
system.cpu1.op_class::FloatMult                     0      0.00%     72.73% # Class of executed instruction
system.cpu1.op_class::FloatMultAcc                  0      0.00%     72.73% # Class of executed instruction
system.cpu1.op_class::FloatDiv                      0      0.00%     72.73% # Class of executed instruction
system.cpu1.op_class::FloatMisc                     0      0.00%     72.73% # Class of executed instruction
system.cpu1.op_class::FloatSqrt                     0      0.00%     72.73% # Class of executed instruction
system.cpu1.op_class::SimdAdd                       0      0.00%     72.73% # Class of executed instruction
system.cpu1.op_class::SimdAddAcc                    0      0.00%     72.73% # Class of executed instruction
system.cpu1.op_class::SimdAlu                       0      0.00%     72.73% # Class of executed instruction
system.cpu1.op_class::SimdCmp                       0      0.00%     72.73% # Class of executed instruction
system.cpu1.op_class::SimdCvt                       0      0.00%     72.73% # Class of executed instruction
system.cpu1.op_class::SimdMisc                      1      4.55%     77.27% # Class of executed instruction
system.cpu1.op_class::SimdMult                      0      0.00%     77.27% # Class of executed instruction
system.cpu1.op_class::SimdMultAcc                   0      0.00%     77.27% # Class of executed instruction
system.cpu1.op_class::SimdShift                     0      0.00%     77.27% # Class of executed instruction
system.cpu1.op_class::SimdShiftAcc                  0      0.00%     77.27% # Class of executed instruction
system.cpu1.op_class::SimdDiv                       0      0.00%     77.27% # Class of executed instruction
system.cpu1.op_class::SimdSqrt                      0      0.00%     77.27% # Class of executed instruction
system.cpu1.op_class::SimdFloatAdd                  1      4.55%     81.82% # Class of executed instruction
system.cpu1.op_class::SimdFloatAlu                  0      0.00%     81.82% # Class of executed instruction
system.cpu1.op_class::SimdFloatCmp                  0      0.00%     81.82% # Class of executed instruction
system.cpu1.op_class::SimdFloatCvt                  0      0.00%     81.82% # Class of executed instruction
system.cpu1.op_class::SimdFloatDiv                  0      0.00%     81.82% # Class of executed instruction
system.cpu1.op_class::SimdFloatMisc                 0      0.00%     81.82% # Class of executed instruction
system.cpu1.op_class::SimdFloatMult                 0      0.00%     81.82% # Class of executed instruction
system.cpu1.op_class::SimdFloatMultAcc              0      0.00%     81.82% # Class of executed instruction
system.cpu1.op_class::SimdFloatSqrt                 0      0.00%     81.82% # Class of executed instruction
system.cpu1.op_class::SimdReduceAdd                 0      0.00%     81.82% # Class of executed instruction
system.cpu1.op_class::SimdReduceAlu                 0      0.00%     81.82% # Class of executed instruction
system.cpu1.op_class::SimdReduceCmp                 0      0.00%     81.82% # Class of executed instruction
system.cpu1.op_class::SimdFloatReduceAdd            0      0.00%     81.82% # Class of executed instruction
system.cpu1.op_class::SimdFloatReduceCmp            0      0.00%     81.82% # Class of executed instruction
system.cpu1.op_class::SimdAes                       0      0.00%     81.82% # Class of executed instruction
system.cpu1.op_class::SimdAesMix                    0      0.00%     81.82% # Class of executed instruction
system.cpu1.op_class::SimdSha1Hash                  0      0.00%     81.82% # Class of executed instruction
system.cpu1.op_class::SimdSha1Hash2                 0      0.00%     81.82% # Class of executed instruction
system.cpu1.op_class::SimdSha256Hash                0      0.00%     81.82% # Class of executed instruction
system.cpu1.op_class::SimdSha256Hash2               0      0.00%     81.82% # Class of executed instruction
system.cpu1.op_class::SimdShaSigma2                 0      0.00%     81.82% # Class of executed instruction
system.cpu1.op_class::SimdShaSigma3                 0      0.00%     81.82% # Class of executed instruction
system.cpu1.op_class::SimdPredAlu                   0      0.00%     81.82% # Class of executed instruction
system.cpu1.op_class::MemRead                       0      0.00%     81.82% # Class of executed instruction
system.cpu1.op_class::MemWrite                      2      9.09%     90.91% # Class of executed instruction
system.cpu1.op_class::FloatMemRead                  2      9.09%    100.00% # Class of executed instruction
system.cpu1.op_class::FloatMemWrite                 0      0.00%    100.00% # Class of executed instruction
system.cpu1.op_class::IprAccess                     0      0.00%    100.00% # Class of executed instruction
system.cpu1.op_class::InstPrefetch                  0      0.00%    100.00% # Class of executed instruction
system.cpu1.op_class::total                        22                       # Class of executed instruction
system.cpu1.workload.numSyscalls                    0                       # Number of system calls
system.cpu2.Branches                                1                       # Number of branches fetched
system.cpu2.committedInsts                         16                       # Number of instructions committed
system.cpu2.committedOps                           25                       # Number of ops (including micro ops) committed
system.cpu2.idle_fraction                           0                       # Percentage of idle cycles
system.cpu2.l2bus.snoop_filter.hit_multi_requests            3                       # Number of requests hitting in the snoop filter with multiple (>1) holders of the requested data.
system.cpu2.l2bus.snoop_filter.hit_multi_snoops            0                       # Number of snoops hitting in the snoop filter with multiple (>1) holders of the requested data.
system.cpu2.l2bus.snoop_filter.hit_single_requests      2529371                       # Number of requests hitting in the snoop filter with a single holder of the requested data.
system.cpu2.l2bus.snoop_filter.hit_single_snoops          208                       # Number of snoops hitting in the snoop filter with a single holder of the requested data.
system.cpu2.l2bus.snoop_filter.tot_requests      5059434                       # Total number of requests made to the snoop filter.
system.cpu2.l2bus.snoop_filter.tot_snoops          208                       # Total number of snoops made to the snoop filter.
system.cpu2.mmucache.mmubus.snoop_filter.hit_multi_requests            0                       # Number of requests hitting in the snoop filter with multiple (>1) holders of the requested data.
system.cpu2.mmucache.mmubus.snoop_filter.hit_multi_snoops            0                       # Number of snoops hitting in the snoop filter with multiple (>1) holders of the requested data.
system.cpu2.mmucache.mmubus.snoop_filter.hit_single_requests            0                       # Number of requests hitting in the snoop filter with a single holder of the requested data.
system.cpu2.mmucache.mmubus.snoop_filter.hit_single_snoops            0                       # Number of snoops hitting in the snoop filter with a single holder of the requested data.
system.cpu2.mmucache.mmubus.snoop_filter.tot_requests            0                       # Total number of requests made to the snoop filter.
system.cpu2.mmucache.mmubus.snoop_filter.tot_snoops            0                       # Total number of snoops made to the snoop filter.
system.cpu2.not_idle_fraction                       1                       # Percentage of non-idle cycles
system.cpu2.numCycles                              31                       # number of cpu cycles simulated
system.cpu2.numWorkItemsCompleted                   0                       # number of work items this cpu completed
system.cpu2.numWorkItemsStarted                     0                       # number of work items this cpu started
system.cpu2.num_busy_cycles                        31                       # Number of busy cycles
system.cpu2.num_cc_register_reads                   5                       # number of times the CC registers were read
system.cpu2.num_cc_register_writes                  4                       # number of times the CC registers were written
system.cpu2.num_conditional_control_insts            1                       # number of instructions that are conditional controls
system.cpu2.num_fp_alu_accesses                    14                       # Number of float alu accesses
system.cpu2.num_fp_insts                           14                       # number of float instructions
system.cpu2.num_fp_register_reads                  33                       # number of times the floating registers were read
system.cpu2.num_fp_register_writes                 14                       # number of times the floating registers were written
system.cpu2.num_func_calls                          0                       # number of times a function call or return occured
system.cpu2.num_idle_cycles                         0                       # Number of idle cycles
system.cpu2.num_int_alu_accesses                   14                       # Number of integer alu accesses
system.cpu2.num_int_insts                          14                       # number of integer instructions
system.cpu2.num_int_register_reads                 21                       # number of times the integer registers were read
system.cpu2.num_int_register_writes                10                       # number of times the integer registers were written
system.cpu2.num_load_insts                          2                       # Number of load instructions
system.cpu2.num_mem_refs                            2                       # number of memory refs
system.cpu2.num_store_insts                         0                       # Number of store instructions
system.cpu2.num_vec_alu_accesses                    0                       # Number of vector alu accesses
system.cpu2.num_vec_insts                           0                       # number of vector instructions
system.cpu2.num_vec_register_reads                  0                       # number of times the vector registers were read
system.cpu2.num_vec_register_writes                 0                       # number of times the vector registers were written
system.cpu2.op_class::No_OpClass                    0      0.00%      0.00% # Class of executed instruction
system.cpu2.op_class::IntAlu                        9     36.00%     36.00% # Class of executed instruction
system.cpu2.op_class::IntMult                       0      0.00%     36.00% # Class of executed instruction
system.cpu2.op_class::IntDiv                        0      0.00%     36.00% # Class of executed instruction
system.cpu2.op_class::FloatAdd                      0      0.00%     36.00% # Class of executed instruction
system.cpu2.op_class::FloatCmp                      0      0.00%     36.00% # Class of executed instruction
system.cpu2.op_class::FloatCvt                      0      0.00%     36.00% # Class of executed instruction
system.cpu2.op_class::FloatMult                     0      0.00%     36.00% # Class of executed instruction
system.cpu2.op_class::FloatMultAcc                  0      0.00%     36.00% # Class of executed instruction
system.cpu2.op_class::FloatDiv                      0      0.00%     36.00% # Class of executed instruction
system.cpu2.op_class::FloatMisc                     0      0.00%     36.00% # Class of executed instruction
system.cpu2.op_class::FloatSqrt                     0      0.00%     36.00% # Class of executed instruction
system.cpu2.op_class::SimdAdd                       0      0.00%     36.00% # Class of executed instruction
system.cpu2.op_class::SimdAddAcc                    0      0.00%     36.00% # Class of executed instruction
system.cpu2.op_class::SimdAlu                       0      0.00%     36.00% # Class of executed instruction
system.cpu2.op_class::SimdCmp                       0      0.00%     36.00% # Class of executed instruction
system.cpu2.op_class::SimdCvt                       0      0.00%     36.00% # Class of executed instruction
system.cpu2.op_class::SimdMisc                      3     12.00%     48.00% # Class of executed instruction
system.cpu2.op_class::SimdMult                      0      0.00%     48.00% # Class of executed instruction
system.cpu2.op_class::SimdMultAcc                   0      0.00%     48.00% # Class of executed instruction
system.cpu2.op_class::SimdShift                     0      0.00%     48.00% # Class of executed instruction
system.cpu2.op_class::SimdShiftAcc                  0      0.00%     48.00% # Class of executed instruction
system.cpu2.op_class::SimdDiv                       0      0.00%     48.00% # Class of executed instruction
system.cpu2.op_class::SimdSqrt                      0      0.00%     48.00% # Class of executed instruction
system.cpu2.op_class::SimdFloatAdd                  4     16.00%     64.00% # Class of executed instruction
system.cpu2.op_class::SimdFloatAlu                  0      0.00%     64.00% # Class of executed instruction
system.cpu2.op_class::SimdFloatCmp                  0      0.00%     64.00% # Class of executed instruction
system.cpu2.op_class::SimdFloatCvt                  3     12.00%     76.00% # Class of executed instruction
system.cpu2.op_class::SimdFloatDiv                  0      0.00%     76.00% # Class of executed instruction
system.cpu2.op_class::SimdFloatMisc                 0      0.00%     76.00% # Class of executed instruction
system.cpu2.op_class::SimdFloatMult                 4     16.00%     92.00% # Class of executed instruction
system.cpu2.op_class::SimdFloatMultAcc              0      0.00%     92.00% # Class of executed instruction
system.cpu2.op_class::SimdFloatSqrt                 0      0.00%     92.00% # Class of executed instruction
system.cpu2.op_class::SimdReduceAdd                 0      0.00%     92.00% # Class of executed instruction
system.cpu2.op_class::SimdReduceAlu                 0      0.00%     92.00% # Class of executed instruction
system.cpu2.op_class::SimdReduceCmp                 0      0.00%     92.00% # Class of executed instruction
system.cpu2.op_class::SimdFloatReduceAdd            0      0.00%     92.00% # Class of executed instruction
system.cpu2.op_class::SimdFloatReduceCmp            0      0.00%     92.00% # Class of executed instruction
system.cpu2.op_class::SimdAes                       0      0.00%     92.00% # Class of executed instruction
system.cpu2.op_class::SimdAesMix                    0      0.00%     92.00% # Class of executed instruction
system.cpu2.op_class::SimdSha1Hash                  0      0.00%     92.00% # Class of executed instruction
system.cpu2.op_class::SimdSha1Hash2                 0      0.00%     92.00% # Class of executed instruction
system.cpu2.op_class::SimdSha256Hash                0      0.00%     92.00% # Class of executed instruction
system.cpu2.op_class::SimdSha256Hash2               0      0.00%     92.00% # Class of executed instruction
system.cpu2.op_class::SimdShaSigma2                 0      0.00%     92.00% # Class of executed instruction
system.cpu2.op_class::SimdShaSigma3                 0      0.00%     92.00% # Class of executed instruction
system.cpu2.op_class::SimdPredAlu                   0      0.00%     92.00% # Class of executed instruction
system.cpu2.op_class::MemRead                       2      8.00%    100.00% # Class of executed instruction
system.cpu2.op_class::MemWrite                      0      0.00%    100.00% # Class of executed instruction
system.cpu2.op_class::FloatMemRead                  0      0.00%    100.00% # Class of executed instruction
system.cpu2.op_class::FloatMemWrite                 0      0.00%    100.00% # Class of executed instruction
system.cpu2.op_class::IprAccess                     0      0.00%    100.00% # Class of executed instruction
system.cpu2.op_class::InstPrefetch                  0      0.00%    100.00% # Class of executed instruction
system.cpu2.op_class::total                        25                       # Class of executed instruction
system.cpu2.workload.numSyscalls                    0                       # Number of system calls
system.cpu3.Branches                                1                       # Number of branches fetched
system.cpu3.committedInsts                         11                       # Number of instructions committed
system.cpu3.committedOps                           23                       # Number of ops (including micro ops) committed
system.cpu3.idle_fraction                           0                       # Percentage of idle cycles
system.cpu3.l2bus.snoop_filter.hit_multi_requests          106                       # Number of requests hitting in the snoop filter with multiple (>1) holders of the requested data.
system.cpu3.l2bus.snoop_filter.hit_multi_snoops            0                       # Number of snoops hitting in the snoop filter with multiple (>1) holders of the requested data.
system.cpu3.l2bus.snoop_filter.hit_single_requests        84957                       # Number of requests hitting in the snoop filter with a single holder of the requested data.
system.cpu3.l2bus.snoop_filter.hit_single_snoops          357                       # Number of snoops hitting in the snoop filter with a single holder of the requested data.
system.cpu3.l2bus.snoop_filter.tot_requests       170711                       # Total number of requests made to the snoop filter.
system.cpu3.l2bus.snoop_filter.tot_snoops          357                       # Total number of snoops made to the snoop filter.
system.cpu3.mmucache.mmubus.snoop_filter.hit_multi_requests            0                       # Number of requests hitting in the snoop filter with multiple (>1) holders of the requested data.
system.cpu3.mmucache.mmubus.snoop_filter.hit_multi_snoops            0                       # Number of snoops hitting in the snoop filter with multiple (>1) holders of the requested data.
system.cpu3.mmucache.mmubus.snoop_filter.hit_single_requests            0                       # Number of requests hitting in the snoop filter with a single holder of the requested data.
system.cpu3.mmucache.mmubus.snoop_filter.hit_single_snoops            0                       # Number of snoops hitting in the snoop filter with a single holder of the requested data.
system.cpu3.mmucache.mmubus.snoop_filter.tot_requests            0                       # Total number of requests made to the snoop filter.
system.cpu3.mmucache.mmubus.snoop_filter.tot_snoops            0                       # Total number of snoops made to the snoop filter.
system.cpu3.not_idle_fraction                       1                       # Percentage of non-idle cycles
system.cpu3.numCycles                              31                       # number of cpu cycles simulated
system.cpu3.numWorkItemsCompleted                   0                       # number of work items this cpu completed
system.cpu3.numWorkItemsStarted                     0                       # number of work items this cpu started
system.cpu3.num_busy_cycles                        31                       # Number of busy cycles
system.cpu3.num_cc_register_reads                   5                       # number of times the CC registers were read
system.cpu3.num_cc_register_writes                  4                       # number of times the CC registers were written
system.cpu3.num_conditional_control_insts            1                       # number of instructions that are conditional controls
system.cpu3.num_fp_alu_accesses                    12                       # Number of float alu accesses
system.cpu3.num_fp_insts                           12                       # number of float instructions
system.cpu3.num_fp_register_reads                   4                       # number of times the floating registers were read
system.cpu3.num_fp_register_writes                  8                       # number of times the floating registers were written
system.cpu3.num_func_calls                          0                       # number of times a function call or return occured
system.cpu3.num_idle_cycles                         0                       # Number of idle cycles
system.cpu3.num_int_alu_accesses                   23                       # Number of integer alu accesses
system.cpu3.num_int_insts                          23                       # number of integer instructions
system.cpu3.num_int_register_reads                 58                       # number of times the integer registers were read
system.cpu3.num_int_register_writes                 8                       # number of times the integer registers were written
system.cpu3.num_load_insts                         10                       # Number of load instructions
system.cpu3.num_mem_refs                           16                       # number of memory refs
system.cpu3.num_store_insts                         6                       # Number of store instructions
system.cpu3.num_vec_alu_accesses                    0                       # Number of vector alu accesses
system.cpu3.num_vec_insts                           0                       # number of vector instructions
system.cpu3.num_vec_register_reads                  0                       # number of times the vector registers were read
system.cpu3.num_vec_register_writes                 0                       # number of times the vector registers were written
system.cpu3.op_class::No_OpClass                    2      8.00%      8.00% # Class of executed instruction
system.cpu3.op_class::IntAlu                        7     28.00%     36.00% # Class of executed instruction
system.cpu3.op_class::IntMult                       0      0.00%     36.00% # Class of executed instruction
system.cpu3.op_class::IntDiv                        0      0.00%     36.00% # Class of executed instruction
system.cpu3.op_class::FloatAdd                      0      0.00%     36.00% # Class of executed instruction
system.cpu3.op_class::FloatCmp                      0      0.00%     36.00% # Class of executed instruction
system.cpu3.op_class::FloatCvt                      0      0.00%     36.00% # Class of executed instruction
system.cpu3.op_class::FloatMult                     0      0.00%     36.00% # Class of executed instruction
system.cpu3.op_class::FloatMultAcc                  0      0.00%     36.00% # Class of executed instruction
system.cpu3.op_class::FloatDiv                      0      0.00%     36.00% # Class of executed instruction
system.cpu3.op_class::FloatMisc                     0      0.00%     36.00% # Class of executed instruction
system.cpu3.op_class::FloatSqrt                     0      0.00%     36.00% # Class of executed instruction
system.cpu3.op_class::SimdAdd                       0      0.00%     36.00% # Class of executed instruction
system.cpu3.op_class::SimdAddAcc                    0      0.00%     36.00% # Class of executed instruction
system.cpu3.op_class::SimdAlu                       0      0.00%     36.00% # Class of executed instruction
system.cpu3.op_class::SimdCmp                       0      0.00%     36.00% # Class of executed instruction
system.cpu3.op_class::SimdCvt                       0      0.00%     36.00% # Class of executed instruction
system.cpu3.op_class::SimdMisc                      0      0.00%     36.00% # Class of executed instruction
system.cpu3.op_class::SimdMult                      0      0.00%     36.00% # Class of executed instruction
system.cpu3.op_class::SimdMultAcc                   0      0.00%     36.00% # Class of executed instruction
system.cpu3.op_class::SimdShift                     0      0.00%     36.00% # Class of executed instruction
system.cpu3.op_class::SimdShiftAcc                  0      0.00%     36.00% # Class of executed instruction
system.cpu3.op_class::SimdDiv                       0      0.00%     36.00% # Class of executed instruction
system.cpu3.op_class::SimdSqrt                      0      0.00%     36.00% # Class of executed instruction
system.cpu3.op_class::SimdFloatAdd                  0      0.00%     36.00% # Class of executed instruction
system.cpu3.op_class::SimdFloatAlu                  0      0.00%     36.00% # Class of executed instruction
system.cpu3.op_class::SimdFloatCmp                  0      0.00%     36.00% # Class of executed instruction
system.cpu3.op_class::SimdFloatCvt                  0      0.00%     36.00% # Class of executed instruction
system.cpu3.op_class::SimdFloatDiv                  0      0.00%     36.00% # Class of executed instruction
system.cpu3.op_class::SimdFloatMisc                 0      0.00%     36.00% # Class of executed instruction
system.cpu3.op_class::SimdFloatMult                 0      0.00%     36.00% # Class of executed instruction
system.cpu3.op_class::SimdFloatMultAcc              0      0.00%     36.00% # Class of executed instruction
system.cpu3.op_class::SimdFloatSqrt                 0      0.00%     36.00% # Class of executed instruction
system.cpu3.op_class::SimdReduceAdd                 0      0.00%     36.00% # Class of executed instruction
system.cpu3.op_class::SimdReduceAlu                 0      0.00%     36.00% # Class of executed instruction
system.cpu3.op_class::SimdReduceCmp                 0      0.00%     36.00% # Class of executed instruction
system.cpu3.op_class::SimdFloatReduceAdd            0      0.00%     36.00% # Class of executed instruction
system.cpu3.op_class::SimdFloatReduceCmp            0      0.00%     36.00% # Class of executed instruction
system.cpu3.op_class::SimdAes                       0      0.00%     36.00% # Class of executed instruction
system.cpu3.op_class::SimdAesMix                    0      0.00%     36.00% # Class of executed instruction
system.cpu3.op_class::SimdSha1Hash                  0      0.00%     36.00% # Class of executed instruction
system.cpu3.op_class::SimdSha1Hash2                 0      0.00%     36.00% # Class of executed instruction
system.cpu3.op_class::SimdSha256Hash                0      0.00%     36.00% # Class of executed instruction
system.cpu3.op_class::SimdSha256Hash2               0      0.00%     36.00% # Class of executed instruction
system.cpu3.op_class::SimdShaSigma2                 0      0.00%     36.00% # Class of executed instruction
system.cpu3.op_class::SimdShaSigma3                 0      0.00%     36.00% # Class of executed instruction
system.cpu3.op_class::SimdPredAlu                   0      0.00%     36.00% # Class of executed instruction
system.cpu3.op_class::MemRead                       2      8.00%     44.00% # Class of executed instruction
system.cpu3.op_class::MemWrite                      2      8.00%     52.00% # Class of executed instruction
system.cpu3.op_class::FloatMemRead                  8     32.00%     84.00% # Class of executed instruction
system.cpu3.op_class::FloatMemWrite                 4     16.00%    100.00% # Class of executed instruction
system.cpu3.op_class::IprAccess                     0      0.00%    100.00% # Class of executed instruction
system.cpu3.op_class::InstPrefetch                  0      0.00%    100.00% # Class of executed instruction
system.cpu3.op_class::total                        25                       # Class of executed instruction
system.cpu3.workload.numSyscalls                    0                       # Number of system calls
system.l3bus.snoop_filter.hit_multi_requests            0                       # Number of requests hitting in the snoop filter with multiple (>1) holders of the requested data.
system.l3bus.snoop_filter.hit_multi_snoops            0                       # Number of snoops hitting in the snoop filter with multiple (>1) holders of the requested data.
system.l3bus.snoop_filter.hit_single_requests       201202                       # Number of requests hitting in the snoop filter with a single holder of the requested data.
system.l3bus.snoop_filter.hit_single_snoops            0                       # Number of snoops hitting in the snoop filter with a single holder of the requested data.
system.l3bus.snoop_filter.tot_requests         416273                       # Total number of requests made to the snoop filter.
system.l3bus.snoop_filter.tot_snoops                0                       # Total number of snoops made to the snoop filter.
system.membus.snoop_filter.hit_multi_requests            0                       # Number of requests hitting in the snoop filter with multiple (>1) holders of the requested data.
system.membus.snoop_filter.hit_multi_snoops            0                       # Number of snoops hitting in the snoop filter with multiple (>1) holders of the requested data.
system.membus.snoop_filter.hit_single_requests        97050                       # Number of requests hitting in the snoop filter with a single holder of the requested data.
system.membus.snoop_filter.hit_single_snoops            0                       # Number of snoops hitting in the snoop filter with a single holder of the requested data.
system.membus.snoop_filter.tot_requests        273192                       # Total number of requests made to the snoop filter.
system.membus.snoop_filter.tot_snoops               0                       # Total number of snoops made to the snoop filter.
system.switch_cpus0.cc_regfile_reads        146406774                       # number of cc regfile reads
system.switch_cpus0.cc_regfile_writes       151796420                       # number of cc regfile writes
system.switch_cpus0.committedInsts          157302808                       # Number of Instructions Simulated
system.switch_cpus0.committedOps            309272403                       # Number of Ops (including micro ops) Simulated
system.switch_cpus0.cpi                      0.537679                       # CPI: Cycles Per Instruction
system.switch_cpus0.cpi_total                0.537679                       # CPI: Total CPI of All Threads
system.switch_cpus0.fp_regfile_writes              56                       # number of floating regfile writes
system.switch_cpus0.idleCycles                  53790                       # Total number of cycles that the CPU has spent unscheduled due to idling
system.switch_cpus0.iew.branchMispredicts      1605276                       # Number of branch mispredicts detected at execute
system.switch_cpus0.iew.exec_branches        28943620                       # Number of branches executed
system.switch_cpus0.iew.exec_nop                    0                       # number of nop insts executed
system.switch_cpus0.iew.exec_rate            4.297198                       # Inst execution rate
system.switch_cpus0.iew.exec_refs           107501468                       # number of memory reference insts executed
system.switch_cpus0.iew.exec_stores          29097702                       # Number of stores executed
system.switch_cpus0.iew.exec_swp                    0                       # number of swp insts executed
system.switch_cpus0.iew.iewBlockCycles        9804387                       # Number of cycles IEW is blocking
system.switch_cpus0.iew.iewDispLoadInsts     84718526                       # Number of dispatched load instructions
system.switch_cpus0.iew.iewDispNonSpecInsts            0                       # Number of dispatched non-speculative instructions
system.switch_cpus0.iew.iewDispSquashedInsts         8344                       # Number of squashed instructions skipped by dispatch
system.switch_cpus0.iew.iewDispStoreInsts     33448504                       # Number of dispatched store instructions
system.switch_cpus0.iew.iewDispatchedInsts    392502765                       # Number of instructions dispatched to IQ
system.switch_cpus0.iew.iewExecLoadInsts     78403766                       # Number of load instructions executed
system.switch_cpus0.iew.iewExecSquashedInsts      4567784                       # Number of squashed instructions skipped in execute
system.switch_cpus0.iew.iewExecutedInsts    363449891                       # Number of executed instructions
system.switch_cpus0.iew.iewIQFullEvents            28                       # Number of times the IQ has become full, causing a stall
system.switch_cpus0.iew.iewIdleCycles               0                       # Number of cycles IEW is idle
system.switch_cpus0.iew.iewLSQFullEvents         1107                       # Number of times the LSQ has become full, causing a stall
system.switch_cpus0.iew.iewSquashCycles       1325485                       # Number of cycles IEW is squashing
system.switch_cpus0.iew.iewUnblockCycles         1142                       # Number of cycles IEW is unblocking
system.switch_cpus0.iew.memOrderViolationEvents        22668                       # Number of memory order violations
system.switch_cpus0.iew.predictedNotTakenIncorrect       772626                       # Number of branches that were predicted not taken incorrectly
system.switch_cpus0.iew.predictedTakenIncorrect       832650                       # Number of branches that were predicted taken incorrectly
system.switch_cpus0.iew.wb_consumers        406544355                       # num instructions consuming a value
system.switch_cpus0.iew.wb_count            361297170                       # cumulative count of insts written-back
system.switch_cpus0.iew.wb_fanout            0.670900                       # average fanout of values written-back
system.switch_cpus0.iew.wb_producers        272750416                       # num instructions producing a value
system.switch_cpus0.iew.wb_rate              4.271746                       # insts written-back per cycle
system.switch_cpus0.iew.wb_sent             362736916                       # cumulative count of insts sent to commit
system.switch_cpus0.int_regfile_reads       525643211                       # number of integer regfile reads
system.switch_cpus0.int_regfile_writes      304700281                       # number of integer regfile writes
system.switch_cpus0.ipc                      1.859847                       # IPC: Instructions Per Cycle
system.switch_cpus0.ipc_total                1.859847                       # IPC: Total IPC of All Threads
system.switch_cpus0.iq.FU_type_0::No_OpClass       788610      0.21%      0.21% # Type of FU issued
system.switch_cpus0.iq.FU_type_0::IntAlu    255390248     69.40%     69.61% # Type of FU issued
system.switch_cpus0.iq.FU_type_0::IntMult      2145576      0.58%     70.19% # Type of FU issued
system.switch_cpus0.iq.FU_type_0::IntDiv            0      0.00%     70.19% # Type of FU issued
system.switch_cpus0.iq.FU_type_0::FloatAdd            0      0.00%     70.19% # Type of FU issued
system.switch_cpus0.iq.FU_type_0::FloatCmp            0      0.00%     70.19% # Type of FU issued
system.switch_cpus0.iq.FU_type_0::FloatCvt            0      0.00%     70.19% # Type of FU issued
system.switch_cpus0.iq.FU_type_0::FloatMult            0      0.00%     70.19% # Type of FU issued
system.switch_cpus0.iq.FU_type_0::FloatMultAcc            0      0.00%     70.19% # Type of FU issued
system.switch_cpus0.iq.FU_type_0::FloatDiv            0      0.00%     70.19% # Type of FU issued
system.switch_cpus0.iq.FU_type_0::FloatMisc            0      0.00%     70.19% # Type of FU issued
system.switch_cpus0.iq.FU_type_0::FloatSqrt            0      0.00%     70.19% # Type of FU issued
system.switch_cpus0.iq.FU_type_0::SimdAdd            0      0.00%     70.19% # Type of FU issued
system.switch_cpus0.iq.FU_type_0::SimdAddAcc            0      0.00%     70.19% # Type of FU issued
system.switch_cpus0.iq.FU_type_0::SimdAlu            0      0.00%     70.19% # Type of FU issued
system.switch_cpus0.iq.FU_type_0::SimdCmp            0      0.00%     70.19% # Type of FU issued
system.switch_cpus0.iq.FU_type_0::SimdCvt            0      0.00%     70.19% # Type of FU issued
system.switch_cpus0.iq.FU_type_0::SimdMisc            0      0.00%     70.19% # Type of FU issued
system.switch_cpus0.iq.FU_type_0::SimdMult            0      0.00%     70.19% # Type of FU issued
system.switch_cpus0.iq.FU_type_0::SimdMultAcc            0      0.00%     70.19% # Type of FU issued
system.switch_cpus0.iq.FU_type_0::SimdShift            0      0.00%     70.19% # Type of FU issued
system.switch_cpus0.iq.FU_type_0::SimdShiftAcc            0      0.00%     70.19% # Type of FU issued
system.switch_cpus0.iq.FU_type_0::SimdDiv            0      0.00%     70.19% # Type of FU issued
system.switch_cpus0.iq.FU_type_0::SimdSqrt            0      0.00%     70.19% # Type of FU issued
system.switch_cpus0.iq.FU_type_0::SimdFloatAdd            0      0.00%     70.19% # Type of FU issued
system.switch_cpus0.iq.FU_type_0::SimdFloatAlu            0      0.00%     70.19% # Type of FU issued
system.switch_cpus0.iq.FU_type_0::SimdFloatCmp            0      0.00%     70.19% # Type of FU issued
system.switch_cpus0.iq.FU_type_0::SimdFloatCvt            0      0.00%     70.19% # Type of FU issued
system.switch_cpus0.iq.FU_type_0::SimdFloatDiv            0      0.00%     70.19% # Type of FU issued
system.switch_cpus0.iq.FU_type_0::SimdFloatMisc            0      0.00%     70.19% # Type of FU issued
system.switch_cpus0.iq.FU_type_0::SimdFloatMult            0      0.00%     70.19% # Type of FU issued
system.switch_cpus0.iq.FU_type_0::SimdFloatMultAcc            0      0.00%     70.19% # Type of FU issued
system.switch_cpus0.iq.FU_type_0::SimdFloatSqrt            0      0.00%     70.19% # Type of FU issued
system.switch_cpus0.iq.FU_type_0::SimdReduceAdd            0      0.00%     70.19% # Type of FU issued
system.switch_cpus0.iq.FU_type_0::SimdReduceAlu            0      0.00%     70.19% # Type of FU issued
system.switch_cpus0.iq.FU_type_0::SimdReduceCmp            0      0.00%     70.19% # Type of FU issued
system.switch_cpus0.iq.FU_type_0::SimdFloatReduceAdd            0      0.00%     70.19% # Type of FU issued
system.switch_cpus0.iq.FU_type_0::SimdFloatReduceCmp            0      0.00%     70.19% # Type of FU issued
system.switch_cpus0.iq.FU_type_0::SimdAes            0      0.00%     70.19% # Type of FU issued
system.switch_cpus0.iq.FU_type_0::SimdAesMix            0      0.00%     70.19% # Type of FU issued
system.switch_cpus0.iq.FU_type_0::SimdSha1Hash            0      0.00%     70.19% # Type of FU issued
system.switch_cpus0.iq.FU_type_0::SimdSha1Hash2            0      0.00%     70.19% # Type of FU issued
system.switch_cpus0.iq.FU_type_0::SimdSha256Hash            0      0.00%     70.19% # Type of FU issued
system.switch_cpus0.iq.FU_type_0::SimdSha256Hash2            0      0.00%     70.19% # Type of FU issued
system.switch_cpus0.iq.FU_type_0::SimdShaSigma2            0      0.00%     70.19% # Type of FU issued
system.switch_cpus0.iq.FU_type_0::SimdShaSigma3            0      0.00%     70.19% # Type of FU issued
system.switch_cpus0.iq.FU_type_0::SimdPredAlu            0      0.00%     70.19% # Type of FU issued
system.switch_cpus0.iq.FU_type_0::MemRead     80066111     21.76%     91.95% # Type of FU issued
system.switch_cpus0.iq.FU_type_0::MemWrite     29627135      8.05%    100.00% # Type of FU issued
system.switch_cpus0.iq.FU_type_0::FloatMemRead            0      0.00%    100.00% # Type of FU issued
system.switch_cpus0.iq.FU_type_0::FloatMemWrite            0      0.00%    100.00% # Type of FU issued
system.switch_cpus0.iq.FU_type_0::IprAccess            0      0.00%    100.00% # Type of FU issued
system.switch_cpus0.iq.FU_type_0::InstPrefetch            0      0.00%    100.00% # Type of FU issued
system.switch_cpus0.iq.FU_type_0::total     368017680                       # Type of FU issued
system.switch_cpus0.iq.fp_alu_accesses              0                       # Number of floating point alu accesses
system.switch_cpus0.iq.fp_inst_queue_reads            0                       # Number of floating instruction queue reads
system.switch_cpus0.iq.fp_inst_queue_wakeup_accesses            0                       # Number of floating instruction queue wakeup accesses
system.switch_cpus0.iq.fp_inst_queue_writes            0                       # Number of floating instruction queue writes
system.switch_cpus0.iq.fu_busy_cnt           11182607                       # FU busy when requested
system.switch_cpus0.iq.fu_busy_rate          0.030386                       # FU busy rate (busy events/executed inst)
system.switch_cpus0.iq.fu_full::No_OpClass            0      0.00%      0.00% # attempts to use FU when none available
system.switch_cpus0.iq.fu_full::IntAlu        7044387     62.99%     62.99% # attempts to use FU when none available
system.switch_cpus0.iq.fu_full::IntMult             0      0.00%     62.99% # attempts to use FU when none available
system.switch_cpus0.iq.fu_full::IntDiv              0      0.00%     62.99% # attempts to use FU when none available
system.switch_cpus0.iq.fu_full::FloatAdd            0      0.00%     62.99% # attempts to use FU when none available
system.switch_cpus0.iq.fu_full::FloatCmp            0      0.00%     62.99% # attempts to use FU when none available
system.switch_cpus0.iq.fu_full::FloatCvt            0      0.00%     62.99% # attempts to use FU when none available
system.switch_cpus0.iq.fu_full::FloatMult            0      0.00%     62.99% # attempts to use FU when none available
system.switch_cpus0.iq.fu_full::FloatMultAcc            0      0.00%     62.99% # attempts to use FU when none available
system.switch_cpus0.iq.fu_full::FloatDiv            0      0.00%     62.99% # attempts to use FU when none available
system.switch_cpus0.iq.fu_full::FloatMisc            0      0.00%     62.99% # attempts to use FU when none available
system.switch_cpus0.iq.fu_full::FloatSqrt            0      0.00%     62.99% # attempts to use FU when none available
system.switch_cpus0.iq.fu_full::SimdAdd             0      0.00%     62.99% # attempts to use FU when none available
system.switch_cpus0.iq.fu_full::SimdAddAcc            0      0.00%     62.99% # attempts to use FU when none available
system.switch_cpus0.iq.fu_full::SimdAlu             0      0.00%     62.99% # attempts to use FU when none available
system.switch_cpus0.iq.fu_full::SimdCmp             0      0.00%     62.99% # attempts to use FU when none available
system.switch_cpus0.iq.fu_full::SimdCvt             0      0.00%     62.99% # attempts to use FU when none available
system.switch_cpus0.iq.fu_full::SimdMisc            0      0.00%     62.99% # attempts to use FU when none available
system.switch_cpus0.iq.fu_full::SimdMult            0      0.00%     62.99% # attempts to use FU when none available
system.switch_cpus0.iq.fu_full::SimdMultAcc            0      0.00%     62.99% # attempts to use FU when none available
system.switch_cpus0.iq.fu_full::SimdShift            0      0.00%     62.99% # attempts to use FU when none available
system.switch_cpus0.iq.fu_full::SimdShiftAcc            0      0.00%     62.99% # attempts to use FU when none available
system.switch_cpus0.iq.fu_full::SimdDiv             0      0.00%     62.99% # attempts to use FU when none available
system.switch_cpus0.iq.fu_full::SimdSqrt            0      0.00%     62.99% # attempts to use FU when none available
system.switch_cpus0.iq.fu_full::SimdFloatAdd            0      0.00%     62.99% # attempts to use FU when none available
system.switch_cpus0.iq.fu_full::SimdFloatAlu            0      0.00%     62.99% # attempts to use FU when none available
system.switch_cpus0.iq.fu_full::SimdFloatCmp            0      0.00%     62.99% # attempts to use FU when none available
system.switch_cpus0.iq.fu_full::SimdFloatCvt            0      0.00%     62.99% # attempts to use FU when none available
system.switch_cpus0.iq.fu_full::SimdFloatDiv            0      0.00%     62.99% # attempts to use FU when none available
system.switch_cpus0.iq.fu_full::SimdFloatMisc            0      0.00%     62.99% # attempts to use FU when none available
system.switch_cpus0.iq.fu_full::SimdFloatMult            0      0.00%     62.99% # attempts to use FU when none available
system.switch_cpus0.iq.fu_full::SimdFloatMultAcc            0      0.00%     62.99% # attempts to use FU when none available
system.switch_cpus0.iq.fu_full::SimdFloatSqrt            0      0.00%     62.99% # attempts to use FU when none available
system.switch_cpus0.iq.fu_full::SimdReduceAdd            0      0.00%     62.99% # attempts to use FU when none available
system.switch_cpus0.iq.fu_full::SimdReduceAlu            0      0.00%     62.99% # attempts to use FU when none available
system.switch_cpus0.iq.fu_full::SimdReduceCmp            0      0.00%     62.99% # attempts to use FU when none available
system.switch_cpus0.iq.fu_full::SimdFloatReduceAdd            0      0.00%     62.99% # attempts to use FU when none available
system.switch_cpus0.iq.fu_full::SimdFloatReduceCmp            0      0.00%     62.99% # attempts to use FU when none available
system.switch_cpus0.iq.fu_full::SimdAes             0      0.00%     62.99% # attempts to use FU when none available
system.switch_cpus0.iq.fu_full::SimdAesMix            0      0.00%     62.99% # attempts to use FU when none available
system.switch_cpus0.iq.fu_full::SimdSha1Hash            0      0.00%     62.99% # attempts to use FU when none available
system.switch_cpus0.iq.fu_full::SimdSha1Hash2            0      0.00%     62.99% # attempts to use FU when none available
system.switch_cpus0.iq.fu_full::SimdSha256Hash            0      0.00%     62.99% # attempts to use FU when none available
system.switch_cpus0.iq.fu_full::SimdSha256Hash2            0      0.00%     62.99% # attempts to use FU when none available
system.switch_cpus0.iq.fu_full::SimdShaSigma2            0      0.00%     62.99% # attempts to use FU when none available
system.switch_cpus0.iq.fu_full::SimdShaSigma3            0      0.00%     62.99% # attempts to use FU when none available
system.switch_cpus0.iq.fu_full::SimdPredAlu            0      0.00%     62.99% # attempts to use FU when none available
system.switch_cpus0.iq.fu_full::MemRead       3430946     30.68%     93.68% # attempts to use FU when none available
system.switch_cpus0.iq.fu_full::MemWrite       707274      6.32%    100.00% # attempts to use FU when none available
system.switch_cpus0.iq.fu_full::FloatMemRead            0      0.00%    100.00% # attempts to use FU when none available
system.switch_cpus0.iq.fu_full::FloatMemWrite            0      0.00%    100.00% # attempts to use FU when none available
system.switch_cpus0.iq.fu_full::IprAccess            0      0.00%    100.00% # attempts to use FU when none available
system.switch_cpus0.iq.fu_full::InstPrefetch            0      0.00%    100.00% # attempts to use FU when none available
system.switch_cpus0.iq.int_alu_accesses     378411677                       # Number of integer alu accesses
system.switch_cpus0.iq.int_inst_queue_reads    832566978                       # Number of integer instruction queue reads
system.switch_cpus0.iq.int_inst_queue_wakeup_accesses    361297170                       # Number of integer instruction queue wakeup accesses
system.switch_cpus0.iq.int_inst_queue_writes    475755122                       # Number of integer instruction queue writes
system.switch_cpus0.iq.iqInstsAdded         392502765                       # Number of instructions added to the IQ (excludes non-spec)
system.switch_cpus0.iq.iqInstsIssued        368017680                       # Number of instructions issued
system.switch_cpus0.iq.iqSquashedInstsExamined     83230354                       # Number of squashed instructions iterated over during squash; mainly for profiling
system.switch_cpus0.iq.iqSquashedInstsIssued       824463                       # Number of squashed instructions issued
system.switch_cpus0.iq.iqSquashedOperandsExamined    106374576                       # Number of squashed operands that are examined and possibly removed from graph
system.switch_cpus0.iq.issued_per_cycle::samples     84524553                       # Number of insts issued each cycle
system.switch_cpus0.iq.issued_per_cycle::mean     4.353974                       # Number of insts issued each cycle
system.switch_cpus0.iq.issued_per_cycle::stdev     2.812272                       # Number of insts issued each cycle
system.switch_cpus0.iq.issued_per_cycle::underflows            0      0.00%      0.00% # Number of insts issued each cycle
system.switch_cpus0.iq.issued_per_cycle::0     17442339     20.64%     20.64% # Number of insts issued each cycle
system.switch_cpus0.iq.issued_per_cycle::1      2421068      2.86%     23.50% # Number of insts issued each cycle
system.switch_cpus0.iq.issued_per_cycle::2      3548450      4.20%     27.70% # Number of insts issued each cycle
system.switch_cpus0.iq.issued_per_cycle::3      5701785      6.75%     34.44% # Number of insts issued each cycle
system.switch_cpus0.iq.issued_per_cycle::4      8375026      9.91%     44.35% # Number of insts issued each cycle
system.switch_cpus0.iq.issued_per_cycle::5      9436508     11.16%     55.52% # Number of insts issued each cycle
system.switch_cpus0.iq.issued_per_cycle::6     13939255     16.49%     72.01% # Number of insts issued each cycle
system.switch_cpus0.iq.issued_per_cycle::7     12204793     14.44%     86.45% # Number of insts issued each cycle
system.switch_cpus0.iq.issued_per_cycle::8     11455329     13.55%    100.00% # Number of insts issued each cycle
system.switch_cpus0.iq.issued_per_cycle::overflows            0      0.00%    100.00% # Number of insts issued each cycle
system.switch_cpus0.iq.issued_per_cycle::min_value            0                       # Number of insts issued each cycle
system.switch_cpus0.iq.issued_per_cycle::max_value            8                       # Number of insts issued each cycle
system.switch_cpus0.iq.issued_per_cycle::total     84524553                       # Number of insts issued each cycle
system.switch_cpus0.iq.rate                  4.351205                       # Inst issue rate
system.switch_cpus0.iq.vec_alu_accesses             0                       # Number of vector alu accesses
system.switch_cpus0.iq.vec_inst_queue_reads            0                       # Number of vector instruction queue reads
system.switch_cpus0.iq.vec_inst_queue_wakeup_accesses            0                       # Number of vector instruction queue wakeup accesses
system.switch_cpus0.iq.vec_inst_queue_writes            0                       # Number of vector instruction queue writes
system.switch_cpus0.memDep0.conflictingLoads     16916890                       # Number of conflicting loads.
system.switch_cpus0.memDep0.conflictingStores     10246712                       # Number of conflicting stores.
system.switch_cpus0.memDep0.insertedLoads     84718526                       # Number of loads inserted to the mem dependence unit.
system.switch_cpus0.memDep0.insertedStores     33448504                       # Number of stores inserted to the mem dependence unit.
system.switch_cpus0.misc_regfile_reads      174425222                       # number of misc regfile reads
system.switch_cpus0.misc_regfile_writes             1                       # number of misc regfile writes
system.switch_cpus0.numCycles                84578343                       # number of cpu cycles simulated
system.switch_cpus0.numWorkItemsCompleted            0                       # number of work items this cpu completed
system.switch_cpus0.numWorkItemsStarted             0                       # number of work items this cpu started
system.switch_cpus0.timesIdled                    233                       # Number of times that the entire CPU went into an idle state and unscheduled itself
system.switch_cpus1.cc_regfile_reads        111974025                       # number of cc regfile reads
system.switch_cpus1.cc_regfile_writes        75559116                       # number of cc regfile writes
system.switch_cpus1.committedInsts          226401092                       # Number of Instructions Simulated
system.switch_cpus1.committedOps            395461807                       # Number of Ops (including micro ops) Simulated
system.switch_cpus1.cpi                      0.373577                       # CPI: Cycles Per Instruction
system.switch_cpus1.cpi_total                0.373577                       # CPI: Total CPI of All Threads
system.switch_cpus1.fp_regfile_reads        311857345                       # number of floating regfile reads
system.switch_cpus1.fp_regfile_writes       171178039                       # number of floating regfile writes
system.switch_cpus1.idleCycles                 103849                       # Total number of cycles that the CPU has spent unscheduled due to idling
system.switch_cpus1.iew.branchMispredicts         3724                       # Number of branch mispredicts detected at execute
system.switch_cpus1.iew.exec_branches        24101163                       # Number of branches executed
system.switch_cpus1.iew.exec_nop                    0                       # number of nop insts executed
system.switch_cpus1.iew.exec_rate            4.677101                       # Inst execution rate
system.switch_cpus1.iew.exec_refs            79284347                       # number of memory reference insts executed
system.switch_cpus1.iew.exec_stores          21116365                       # Number of stores executed
system.switch_cpus1.iew.exec_swp                    0                       # number of swp insts executed
system.switch_cpus1.iew.iewBlockCycles         970731                       # Number of cycles IEW is blocking
system.switch_cpus1.iew.iewDispLoadInsts     58181882                       # Number of dispatched load instructions
system.switch_cpus1.iew.iewDispNonSpecInsts            3                       # Number of dispatched non-speculative instructions
system.switch_cpus1.iew.iewDispSquashedInsts          968                       # Number of squashed instructions skipped by dispatch
system.switch_cpus1.iew.iewDispStoreInsts     21130144                       # Number of dispatched store instructions
system.switch_cpus1.iew.iewDispatchedInsts    395678489                       # Number of instructions dispatched to IQ
system.switch_cpus1.iew.iewExecLoadInsts     58167982                       # Number of load instructions executed
system.switch_cpus1.iew.iewExecSquashedInsts        13944                       # Number of squashed instructions skipped in execute
system.switch_cpus1.iew.iewExecutedInsts    395581419                       # Number of executed instructions
system.switch_cpus1.iew.iewIQFullEvents          8692                       # Number of times the IQ has become full, causing a stall
system.switch_cpus1.iew.iewIdleCycles               0                       # Number of cycles IEW is idle
system.switch_cpus1.iew.iewLSQFullEvents      1410744                       # Number of times the LSQ has become full, causing a stall
system.switch_cpus1.iew.iewSquashCycles          5667                       # Number of cycles IEW is squashing
system.switch_cpus1.iew.iewUnblockCycles      1426697                       # Number of cycles IEW is unblocking
system.switch_cpus1.iew.memOrderViolationEvents         2443                       # Number of memory order violations
system.switch_cpus1.iew.predictedNotTakenIncorrect         2308                       # Number of branches that were predicted not taken incorrectly
system.switch_cpus1.iew.predictedTakenIncorrect         1416                       # Number of branches that were predicted taken incorrectly
system.switch_cpus1.iew.wb_consumers        523494920                       # num instructions consuming a value
system.switch_cpus1.iew.wb_count            395571600                       # cumulative count of insts written-back
system.switch_cpus1.iew.wb_fanout            0.577699                       # average fanout of values written-back
system.switch_cpus1.iew.wb_producers        302422640                       # num instructions producing a value
system.switch_cpus1.iew.wb_rate              4.676985                       # insts written-back per cycle
system.switch_cpus1.iew.wb_sent             395575414                       # cumulative count of insts sent to commit
system.switch_cpus1.int_regfile_reads       353390589                       # number of integer regfile reads
system.switch_cpus1.int_regfile_writes      172263704                       # number of integer regfile writes
system.switch_cpus1.ipc                      2.676821                       # IPC: Instructions Per Cycle
system.switch_cpus1.ipc_total                2.676821                       # IPC: Total IPC of All Threads
system.switch_cpus1.iq.FU_type_0::No_OpClass         4625      0.00%      0.00% # Type of FU issued
system.switch_cpus1.iq.FU_type_0::IntAlu    212423509     53.70%     53.70% # Type of FU issued
system.switch_cpus1.iq.FU_type_0::IntMult        13302      0.00%     53.70% # Type of FU issued
system.switch_cpus1.iq.FU_type_0::IntDiv            0      0.00%     53.70% # Type of FU issued
system.switch_cpus1.iq.FU_type_0::FloatAdd     18389140      4.65%     58.35% # Type of FU issued
system.switch_cpus1.iq.FU_type_0::FloatCmp            0      0.00%     58.35% # Type of FU issued
system.switch_cpus1.iq.FU_type_0::FloatCvt           10      0.00%     58.35% # Type of FU issued
system.switch_cpus1.iq.FU_type_0::FloatMult            0      0.00%     58.35% # Type of FU issued
system.switch_cpus1.iq.FU_type_0::FloatMultAcc            0      0.00%     58.35% # Type of FU issued
system.switch_cpus1.iq.FU_type_0::FloatDiv            0      0.00%     58.35% # Type of FU issued
system.switch_cpus1.iq.FU_type_0::FloatMisc            0      0.00%     58.35% # Type of FU issued
system.switch_cpus1.iq.FU_type_0::FloatSqrt            0      0.00%     58.35% # Type of FU issued
system.switch_cpus1.iq.FU_type_0::SimdAdd            0      0.00%     58.35% # Type of FU issued
system.switch_cpus1.iq.FU_type_0::SimdAddAcc            0      0.00%     58.35% # Type of FU issued
system.switch_cpus1.iq.FU_type_0::SimdAlu     11903839      3.01%     61.36% # Type of FU issued
system.switch_cpus1.iq.FU_type_0::SimdCmp            0      0.00%     61.36% # Type of FU issued
system.switch_cpus1.iq.FU_type_0::SimdCvt            0      0.00%     61.36% # Type of FU issued
system.switch_cpus1.iq.FU_type_0::SimdMisc      6903078      1.74%     63.10% # Type of FU issued
system.switch_cpus1.iq.FU_type_0::SimdMult            0      0.00%     63.10% # Type of FU issued
system.switch_cpus1.iq.FU_type_0::SimdMultAcc            0      0.00%     63.10% # Type of FU issued
system.switch_cpus1.iq.FU_type_0::SimdShift            0      0.00%     63.10% # Type of FU issued
system.switch_cpus1.iq.FU_type_0::SimdShiftAcc            0      0.00%     63.10% # Type of FU issued
system.switch_cpus1.iq.FU_type_0::SimdDiv            0      0.00%     63.10% # Type of FU issued
system.switch_cpus1.iq.FU_type_0::SimdSqrt            0      0.00%     63.10% # Type of FU issued
system.switch_cpus1.iq.FU_type_0::SimdFloatAdd     33505043      8.47%     71.57% # Type of FU issued
system.switch_cpus1.iq.FU_type_0::SimdFloatAlu            0      0.00%     71.57% # Type of FU issued
system.switch_cpus1.iq.FU_type_0::SimdFloatCmp       143185      0.04%     71.61% # Type of FU issued
system.switch_cpus1.iq.FU_type_0::SimdFloatCvt      7855447      1.99%     73.60% # Type of FU issued
system.switch_cpus1.iq.FU_type_0::SimdFloatDiv      2290182      0.58%     74.17% # Type of FU issued
system.switch_cpus1.iq.FU_type_0::SimdFloatMisc            0      0.00%     74.17% # Type of FU issued
system.switch_cpus1.iq.FU_type_0::SimdFloatMult     22650040      5.73%     79.90% # Type of FU issued
system.switch_cpus1.iq.FU_type_0::SimdFloatMultAcc            0      0.00%     79.90% # Type of FU issued
system.switch_cpus1.iq.FU_type_0::SimdFloatSqrt       223313      0.06%     79.96% # Type of FU issued
system.switch_cpus1.iq.FU_type_0::SimdReduceAdd            0      0.00%     79.96% # Type of FU issued
system.switch_cpus1.iq.FU_type_0::SimdReduceAlu            0      0.00%     79.96% # Type of FU issued
system.switch_cpus1.iq.FU_type_0::SimdReduceCmp            0      0.00%     79.96% # Type of FU issued
system.switch_cpus1.iq.FU_type_0::SimdFloatReduceAdd            0      0.00%     79.96% # Type of FU issued
system.switch_cpus1.iq.FU_type_0::SimdFloatReduceCmp            0      0.00%     79.96% # Type of FU issued
system.switch_cpus1.iq.FU_type_0::SimdAes            0      0.00%     79.96% # Type of FU issued
system.switch_cpus1.iq.FU_type_0::SimdAesMix            0      0.00%     79.96% # Type of FU issued
system.switch_cpus1.iq.FU_type_0::SimdSha1Hash            0      0.00%     79.96% # Type of FU issued
system.switch_cpus1.iq.FU_type_0::SimdSha1Hash2            0      0.00%     79.96% # Type of FU issued
[...]
system.switch_cpus3.commit.numCommittedDist::0     28378191     39.50%     39.50% # Number of insts commited each cycle
system.switch_cpus3.commit.numCommittedDist::1     16795174     23.38%     62.88% # Number of insts commited each cycle
system.switch_cpus3.commit.numCommittedDist::2      3711673      5.17%     68.05% # Number of insts commited each cycle
system.switch_cpus3.commit.numCommittedDist::3      9538609     13.28%     81.32% # Number of insts commited each cycle
system.switch_cpus3.commit.numCommittedDist::4      3218213      4.48%     85.80% # Number of insts commited each cycle
system.switch_cpus3.commit.numCommittedDist::5      1772354      2.47%     88.27% # Number of insts commited each cycle
system.switch_cpus3.commit.numCommittedDist::6       774963      1.08%     89.35% # Number of insts commited each cycle
system.switch_cpus3.commit.numCommittedDist::7       681285      0.95%     90.30% # Number of insts commited each cycle
system.switch_cpus3.commit.numCommittedDist::8      6969763      9.70%    100.00% # Number of insts commited each cycle
system.switch_cpus3.commit.numCommittedDist::overflows            0      0.00%    100.00% # Number of insts commited each cycle
system.switch_cpus3.commit.numCommittedDist::min_value            0                       # Number of insts commited each cycle
system.switch_cpus3.commit.numCommittedDist::max_value            8                       # Number of insts commited each cycle
system.switch_cpus3.commit.numCommittedDist::total     71840225                       # Number of insts commited each cycle
system.switch_cpus3.commit.instsCommitted     96274473                       # Number of instructions committed
system.switch_cpus3.commit.opsCommitted     139745846                       # Number of ops (including micro ops) committed
system.switch_cpus3.commit.memRefs           20526338                       # Number of memory references committed
system.switch_cpus3.commit.loads             14320362                       # Number of loads committed
system.switch_cpus3.commit.amos                     0                       # Number of atomic instructions committed
system.switch_cpus3.commit.membars                  0                       # Number of memory barriers committed
system.switch_cpus3.commit.branches          11432016                       # Number of branches committed
system.switch_cpus3.commit.vector                   0                       # Number of committed Vector instructions.
system.switch_cpus3.commit.floating            503030                       # Number of committed floating point instructions.
system.switch_cpus3.commit.integer          139745316                       # Number of committed integer instructions.
system.switch_cpus3.commit.functionCalls        28132                       # Number of function calls committed.
system.switch_cpus3.commit.committedInstType_0::No_OpClass          245      0.00%      0.00% # Class of committed instruction
system.switch_cpus3.commit.committedInstType_0::IntAlu    115766107     82.84%     82.84% # Class of committed instruction
system.switch_cpus3.commit.committedInstType_0::IntMult      3453156      2.47%     85.31% # Class of committed instruction
system.switch_cpus3.commit.committedInstType_0::IntDiv            0      0.00%     85.31% # Class of committed instruction
system.switch_cpus3.commit.committedInstType_0::FloatAdd            0      0.00%     85.31% # Class of committed instruction
system.switch_cpus3.commit.committedInstType_0::FloatCmp            0      0.00%     85.31% # Class of committed instruction
system.switch_cpus3.commit.committedInstType_0::FloatCvt            0      0.00%     85.31% # Class of committed instruction
system.switch_cpus3.commit.committedInstType_0::FloatMult            0      0.00%     85.31% # Class of committed instruction
system.switch_cpus3.commit.committedInstType_0::FloatMultAcc            0      0.00%     85.31% # Class of committed instruction
system.switch_cpus3.commit.committedInstType_0::FloatDiv            0      0.00%     85.31% # Class of committed instruction
system.switch_cpus3.commit.committedInstType_0::FloatMisc            0      0.00%     85.31% # Class of committed instruction
system.switch_cpus3.commit.committedInstType_0::FloatSqrt            0      0.00%     85.31% # Class of committed instruction
system.switch_cpus3.commit.committedInstType_0::SimdAdd            0      0.00%     85.31% # Class of committed instruction
system.switch_cpus3.commit.committedInstType_0::SimdAddAcc            0      0.00%     85.31% # Class of committed instruction
system.switch_cpus3.commit.committedInstType_0::SimdAlu            0      0.00%     85.31% # Class of committed instruction
system.switch_cpus3.commit.committedInstType_0::SimdCmp            0      0.00%     85.31% # Class of committed instruction
system.switch_cpus3.commit.committedInstType_0::SimdCvt            0      0.00%     85.31% # Class of committed instruction
system.switch_cpus3.commit.committedInstType_0::SimdMisc            0      0.00%     85.31% # Class of committed instruction
system.switch_cpus3.commit.committedInstType_0::SimdMult            0      0.00%     85.31% # Class of committed instruction
system.switch_cpus3.commit.committedInstType_0::SimdMultAcc            0      0.00%     85.31% # Class of committed instruction
system.switch_cpus3.commit.committedInstType_0::SimdShift            0      0.00%     85.31% # Class of committed instruction
system.switch_cpus3.commit.committedInstType_0::SimdShiftAcc            0      0.00%     85.31% # Class of committed instruction
system.switch_cpus3.commit.committedInstType_0::SimdDiv            0      0.00%     85.31% # Class of committed instruction
system.switch_cpus3.commit.committedInstType_0::SimdSqrt            0      0.00%     85.31% # Class of committed instruction
system.switch_cpus3.commit.committedInstType_0::SimdFloatAdd            0      0.00%     85.31% # Class of committed instruction
system.switch_cpus3.commit.committedInstType_0::SimdFloatAlu            0      0.00%     85.31% # Class of committed instruction
system.switch_cpus3.commit.committedInstType_0::SimdFloatCmp            0      0.00%     85.31% # Class of committed instruction
system.switch_cpus3.commit.committedInstType_0::SimdFloatCvt            0      0.00%     85.31% # Class of committed instruction
system.switch_cpus3.commit.committedInstType_0::SimdFloatDiv            0      0.00%     85.31% # Class of committed instruction
system.switch_cpus3.commit.committedInstType_0::SimdFloatMisc            0      0.00%     85.31% # Class of committed instruction
system.switch_cpus3.commit.committedInstType_0::SimdFloatMult            0      0.00%     85.31% # Class of committed instruction
system.switch_cpus3.commit.committedInstType_0::SimdFloatMultAcc            0      0.00%     85.31% # Class of committed instruction
system.switch_cpus3.commit.committedInstType_0::SimdFloatSqrt            0      0.00%     85.31% # Class of committed instruction
system.switch_cpus3.commit.committedInstType_0::SimdReduceAdd            0      0.00%     85.31% # Class of committed instruction
system.switch_cpus3.commit.committedInstType_0::SimdReduceAlu            0      0.00%     85.31% # Class of committed instruction
system.switch_cpus3.commit.committedInstType_0::SimdReduceCmp            0      0.00%     85.31% # Class of committed instruction
system.switch_cpus3.commit.committedInstType_0::SimdFloatReduceAdd            0      0.00%     85.31% # Class of committed instruction
system.switch_cpus3.commit.committedInstType_0::SimdFloatReduceCmp            0      0.00%     85.31% # Class of committed instruction
system.switch_cpus3.commit.committedInstType_0::SimdAes            0      0.00%     85.31% # Class of committed instruction
system.switch_cpus3.commit.committedInstType_0::SimdAesMix            0      0.00%     85.31% # Class of committed instruction
system.switch_cpus3.commit.committedInstType_0::SimdSha1Hash            0      0.00%     85.31% # Class of committed instruction
system.switch_cpus3.commit.committedInstType_0::SimdSha1Hash2            0      0.00%     85.31% # Class of committed instruction
system.switch_cpus3.commit.committedInstType_0::SimdSha256Hash            0      0.00%     85.31% # Class of committed instruction
system.switch_cpus3.commit.committedInstType_0::SimdSha256Hash2            0      0.00%     85.31% # Class of committed instruction
system.switch_cpus3.commit.committedInstType_0::SimdShaSigma2            0      0.00%     85.31% # Class of committed instruction
system.switch_cpus3.commit.committedInstType_0::SimdShaSigma3            0      0.00%     85.31% # Class of committed instruction
system.switch_cpus3.commit.committedInstType_0::SimdPredAlu            0      0.00%     85.31% # Class of committed instruction
system.switch_cpus3.commit.committedInstType_0::MemRead     14068854     10.07%     95.38% # Class of committed instruction
system.switch_cpus3.commit.committedInstType_0::MemWrite      5954454      4.26%     99.64% # Class of committed instruction
system.switch_cpus3.commit.committedInstType_0::FloatMemRead       251508      0.18%     99.82% # Class of committed instruction
system.switch_cpus3.commit.committedInstType_0::FloatMemWrite       251522      0.18%    100.00% # Class of committed instruction
system.switch_cpus3.commit.committedInstType_0::IprAccess            0      0.00%    100.00% # Class of committed instruction
system.switch_cpus3.commit.committedInstType_0::InstPrefetch            0      0.00%    100.00% # Class of committed instruction
system.switch_cpus3.commit.committedInstType_0::total    139745846                       # Class of committed instruction
system.switch_cpus3.commit.commitEligibleSamples      6969763                       # number cycles where commit BW limit reached
system.switch_cpus3.decode.idleCycles         7266453                       # Number of cycles decode is idle
system.switch_cpus3.decode.blockedCycles     40528873                       # Number of cycles decode is blocked
system.switch_cpus3.decode.runCycles         23761885                       # Number of cycles decode is running
system.switch_cpus3.decode.unblockCycles     11705244                       # Number of cycles decode is unblocking
system.switch_cpus3.decode.squashCycles       1259058                       # Number of cycles decode is squashing
system.switch_cpus3.decode.branchResolved     14180823                       # Number of times decode resolved a  branch
system.switch_cpus3.decode.branchMispred         1662                       # Number of times decode detected a branch misprediction
system.switch_cpus3.decode.decodedInsts     256714441                       # Number of instructions handled by decode
system.switch_cpus3.decode.squashedInsts         4385                       # Number of squashed instructions handled by decode
system.switch_cpus3.dtb.rdAccesses           22966875                       # TLB accesses on read requests
system.switch_cpus3.dtb.wrAccesses           10270200                       # TLB accesses on write requests
system.switch_cpus3.dtb.rdMisses                13967                       # TLB misses on read requests
system.switch_cpus3.dtb.wrMisses                  685                       # TLB misses on write requests
system.switch_cpus3.dtb.walker.power_state.pwrStateResidencyTicks::UNDEFINED 14978610780615                       # Cumulative time (in ticks) in various power states
system.switch_cpus3.fetch.icacheStallCycles      1150573                       # Number of cycles fetch is stalled on an Icache miss
system.switch_cpus3.fetch.insts             195593038                       # Number of instructions fetch has processed
system.switch_cpus3.fetch.branches           22798641                       # Number of branches that fetch encountered
system.switch_cpus3.fetch.predictedBranches     15755764                       # Number of branches that fetch has predicted taken
system.switch_cpus3.fetch.cycles             82110024                       # Number of cycles fetch has run and was not squashing or blocked
system.switch_cpus3.fetch.squashCycles        2521410                       # Number of cycles fetch has spent squashing
system.switch_cpus3.fetch.miscStallCycles           23                       # Number of cycles fetch has spent waiting on interrupts,or bad addresses, or out of MSHRs
system.switch_cpus3.fetch.pendingTrapStallCycles          192                       # Number of stall cycles due to pending traps
system.switch_cpus3.fetch.cacheLines         26114250                       # Number of cache lines fetched
system.switch_cpus3.fetch.icacheSquashes          248                       # Number of outstanding Icache misses that were squashed
system.switch_cpus3.fetch.nisnDist::samples     84521517                       # Number of instructions fetched each cycle (Total)
system.switch_cpus3.fetch.nisnDist::mean     3.413916                       # Number of instructions fetched each cycle (Total)
system.switch_cpus3.fetch.nisnDist::stdev     3.358771                       # Number of instructions fetched each cycle (Total)
system.switch_cpus3.fetch.nisnDist::underflows            0      0.00%      0.00% # Number of instructions fetched each cycle (Total)
system.switch_cpus3.fetch.nisnDist::0        32028557     37.89%     37.89% # Number of instructions fetched each cycle (Total)
system.switch_cpus3.fetch.nisnDist::1         4825711      5.71%     43.60% # Number of instructions fetched each cycle (Total)
system.switch_cpus3.fetch.nisnDist::2         5634767      6.67%     50.27% # Number of instructions fetched each cycle (Total)
system.switch_cpus3.fetch.nisnDist::3         4247343      5.03%     55.30% # Number of instructions fetched each cycle (Total)
system.switch_cpus3.fetch.nisnDist::4         4532389      5.36%     60.66% # Number of instructions fetched each cycle (Total)
system.switch_cpus3.fetch.nisnDist::5         5410970      6.40%     67.06% # Number of instructions fetched each cycle (Total)
system.switch_cpus3.fetch.nisnDist::6         3220241      3.81%     70.87% # Number of instructions fetched each cycle (Total)
system.switch_cpus3.fetch.nisnDist::7         1766088      2.09%     72.96% # Number of instructions fetched each cycle (Total)
system.switch_cpus3.fetch.nisnDist::8        22855451     27.04%    100.00% # Number of instructions fetched each cycle (Total)
system.switch_cpus3.fetch.nisnDist::overflows            0      0.00%    100.00% # Number of instructions fetched each cycle (Total)
system.switch_cpus3.fetch.nisnDist::min_value            0                       # Number of instructions fetched each cycle (Total)
system.switch_cpus3.fetch.nisnDist::max_value            8                       # Number of instructions fetched each cycle (Total)
system.switch_cpus3.fetch.nisnDist::total     84521517                       # Number of instructions fetched each cycle (Total)
system.switch_cpus3.fetch.branchRate         0.269556                       # Number of branch fetches per cycle
system.switch_cpus3.fetch.rate               2.312566                       # Number of inst fetches per cycle
system.switch_cpus3.itb.rdAccesses                  0                       # TLB accesses on read requests
system.switch_cpus3.itb.wrAccesses           26114285                       # TLB accesses on write requests
system.switch_cpus3.itb.rdMisses                    0                       # TLB misses on read requests
system.switch_cpus3.itb.wrMisses                   54                       # TLB misses on write requests
system.switch_cpus3.itb.walker.power_state.pwrStateResidencyTicks::UNDEFINED 14978610780615                       # Cumulative time (in ticks) in various power states
system.switch_cpus3.lsq0.forwLoads            2760507                       # Number of loads that had data forwarded from stores
system.switch_cpus3.lsq0.squashedLoads       12516469                       # Number of loads squashed
system.switch_cpus3.lsq0.ignoredResponses         2454                       # Number of memory responses ignored because the instruction is squashed
system.switch_cpus3.lsq0.memOrderViolation         7830                       # Number of memory ordering violations
system.switch_cpus3.lsq0.squashedStores       8246261                       # Number of stores squashed
system.switch_cpus3.lsq0.rescheduledLoads            1                       # Number of loads that were rescheduled
system.switch_cpus3.lsq0.blockedByCache           129                       # Number of times an access to memory failed due to the cache being blocked
system.switch_cpus3.power_state.pwrStateResidencyTicks::OFF  28164598542                       # Cumulative time (in ticks) in various power states
system.switch_cpus3.rename.squashCycles       1259058                       # Number of cycles rename is squashing
system.switch_cpus3.rename.idleCycles        11897490                       # Number of cycles rename is idle
system.switch_cpus3.rename.blockCycles       18723164                       # Number of cycles rename is blocking
system.switch_cpus3.rename.serializeStallCycles            0                       # count of cycles rename stalledfor serializing inst
system.switch_cpus3.rename.runCycles         30630251                       # Number of cycles rename is running
system.switch_cpus3.rename.unblockCycles     22011550                       # Number of cycles rename is unblocking
system.switch_cpus3.rename.renamedInsts     249611170                       # Number of instructions processed by rename
system.switch_cpus3.rename.ROBFullEvents        12862                       # Number of times rename has blocked due to ROB full
system.switch_cpus3.rename.IQFullEvents      15793787                       # Number of times rename has blocked due to IQ full
system.switch_cpus3.rename.LQFullEvents         11611                       # Number of times rename has blocked due to LQ full
system.switch_cpus3.rename.SQFullEvents       4155221                       # Number of times rename has blocked due to SQ full
system.switch_cpus3.rename.renamedOperands    357768672                       # Number of destination operands rename has renamed
system.switch_cpus3.rename.lookups          640490716                       # Number of register rename lookups that rename has made
system.switch_cpus3.rename.intLookups       434247758                       # Number of integer rename lookups
system.switch_cpus3.rename.fpLookups          2560138                       # Number of floating rename lookups
system.switch_cpus3.rename.committedMaps    205727042                       # Number of HB maps that are committed
system.switch_cpus3.rename.undoneMaps       152041611                       # Number of HB maps that are undone due to squashing
system.switch_cpus3.rename.serializing              0                       # count of serializing insts renamed
system.switch_cpus3.rename.tempSerializing            0                       # count of temporary serializing insts renamed
system.switch_cpus3.rename.skidInsts         47813100                       # count of insts added to the skid buffer
system.switch_cpus3.rob.reads               300096073                       # The number of ROB reads
system.switch_cpus3.rob.writes              485804655                       # The number of ROB writes
system.switch_cpus3.thread0.numInsts         96274473                       # Number of Instructions committed
system.switch_cpus3.thread0.numOps          139745846                       # Number of Ops committed
system.switch_cpus3.thread0.numMemRefs              0                       # Number of Memory References
system.voltage_domain.voltage                       1                       # Voltage in Volts

---------- End Simulation Statistics   ----------
