Command line:
./runscript_pride.sh nab AE.BASELINE.1C 1 2017
Global frequency set at 1000000000000 ticks per second
DRAM config: RowsPerBank: 65536, BanksPerRank: 32, RanksPerChannel: 1
warn: Sockets disabled, not accepting gdb connections
warn: CoherentXBar system.cpu.mmucache.mmubus has no snooping ports attached!
warn: Checkpoints for file descriptors currently do not work.
gem5 Simulator System.  http://gem5.org
gem5 is copyrighted software; use the --copyright option for details.

gem5 version 20.1.0.5
gem5 compiled Jul 12 2024 12:42:38
gem5 started Jul 31 2024 03:21:18
gem5 executing on a07dda8b130c, pid 225600
command line: /home/user/PrIDE/performance/gem5/build/X86/gem5.opt --outdir=/home/user/PrIDE/performance/gem5/stats/pride_multiprogram_16GBmem_250Mn.SPEC2017.C1/AE.BASELINE.1C/nab /home/user/PrIDE/performance/gem5/configs/example/se_rq_spec_config_multicore.py --redirects /lib64=/home/utils/gcc-6.2.0/lib64 --benchmark=nab --benchmark_stdout=/home/user/PrIDE/performance/gem5/stats/pride_multiprogram_16GBmem_250Mn.SPEC2017.C1/AE.BASELINE.1C/nab/nab.out --benchmark_stderr=/home/user/PrIDE/performance/gem5/stats/pride_multiprogram_16GBmem_250Mn.SPEC2017.C1/AE.BASELINE.1C/nab/nab.err --spec-version=2017 --num-cpus=1 --mem-size=16GB --mem-type=DDR5_2400_32x4 --mem-ranks=1 --mem-channels=1 --checkpoint-dir=/home/user/PrIDE/performance/gem5/cpts-DDR5/multiprogram_16GBmem_25Bn.SPEC2017.C1/nab-1-ref-x86 --checkpoint-restore=25000000000 --at-instruction --cpu-type DerivO3CPU --caches --l2cache --l1d_size=32kB --l1i_size=32kB --l2_size=256kB --l3_size=4MB --l1d_assoc=8 --l1i_assoc=8 --l2_assoc=16 --l3_assoc=16 --cpu-clock=3GHz --sys-clock=3GHz --maxinsts=250000000 --prog-interval=300Hz

info: Standard input is not a terminal, disabling listeners.
Benchmark- 0   nab
Selected benchmark
--> nab
CMD: ['/opt/spec2017/benchspec/CPU/544.nab_r/run/run_base_refrate_gem5_se-m64.0000/nab_r_base.gem5_se-m64', '1am0', '1122214447', '122']
CWD: /opt/spec2017/benchspec/CPU/544.nab_r/run/run_base_refrate_gem5_se-m64.0000/
Process stdout file: /home/user/PrIDE/performance/gem5/stats/pride_multiprogram_16GBmem_250Mn.SPEC2017.C1/AE.BASELINE.1C/nab/nab.out_0
Process stderr file: /home/user/PrIDE/performance/gem5/stats/pride_multiprogram_16GBmem_250Mn.SPEC2017.C1/AE.BASELINE.1C/nab/nab.err_0
Workload-0: 
['/opt/spec2017/benchspec/CPU/544.nab_r/run/run_base_refrate_gem5_se-m64.0000/nab_r_base.gem5_se-m64', '1am0', '1122214447', '122']
defense_enable:  False  detector:  MG  mitigation:  RRS  threshold:  800
mg_entries:  1700
rrs_tuples:  3400 rrs_swap_delay:  2740ns rit_acc_delay:  1.25ns
Switch at curTick count:10000
warn: membus.master is deprecated. `master` is now called `mem_side_ports`
warn: No dot file generated. Please install pydot to generate the dot file and pdf.
info: Entering event queue @ 16891902834354.  Starting simulation...
warn: PowerState: Already in the requested power state, request ignored
Switched CPUS @ tick 16891902844354
switching cpus
**** REAL SIMULATION ****
info: Entering event queue @ 16891902844354.  Starting simulation...
16895236167687: Event_93: system.switch_cpus progress event, total committed:28472289, progress insts committed: 28472289, IPC: 02.84438
16898569501020: Event_93: system.switch_cpus progress event, total committed:58245284, progress insts committed: 29772995, IPC: 02.97432
16901902834353: Event_93: system.switch_cpus progress event, total committed:88150723, progress insts committed: 29905439, IPC: 02.98755
16905236167686: Event_93: system.switch_cpus progress event, total committed:118036264, progress insts committed: 29885541, IPC: 02.98557
16908569501019: Event_93: system.switch_cpus progress event, total committed:148175004, progress insts committed: 30138740, IPC: 03.01086
16911902834352: Event_93: system.switch_cpus progress event, total committed:178186363, progress insts committed: 30011359, IPC: 02.99813
16915236167685: Event_93: system.switch_cpus progress event, total committed:208125913, progress insts committed: 29939550, IPC: 02.99096
16918569501018: Event_93: system.switch_cpus progress event, total committed:237790482, progress insts committed: 29664569, IPC: 02.96349
16921902834351: Event_93: system.switch_cpus progress event, total committed:267556760, progress insts committed: 29766278, IPC: 02.97365
16925236167684: Event_93: system.switch_cpus progress event, total committed:297638585, progress insts committed: 30081825, IPC: 03.00517
16928569501017: Event_93: system.switch_cpus progress event, total committed:327760390, progress insts committed: 30121805, IPC: 03.00917
16931902834350: Event_93: system.switch_cpus progress event, total committed:357678148, progress insts committed: 29917758, IPC: 02.98878
Exiting @ tick 16934578809993 because a thread reached the max instruction count
