
---------- Begin Simulation Statistics ----------
final_tick                               16934578809993                       # Number of ticks from beginning of simulation (restored from checkpoints and never reset)
host_inst_rate                                 232379                       # Simulator instruction rate (inst/s)
host_mem_usage                               16978544                       # Number of bytes of host memory used
host_op_rate                                   354227                       # Simulator op (including micro ops) rate (op/s)
host_seconds                                  1075.83                       # Real time elapsed on the host
host_tick_rate                               39667989                       # Simulator tick rate (ticks/s)
sim_freq                                 1000000000000                       # Frequency of simulated ticks
sim_insts                                   250000014                       # Number of instructions simulated
sim_ops                                     381087514                       # Number of ops (including micro ops) simulated
sim_seconds                                  0.042676                       # Number of seconds simulated
sim_ticks                                 42675975639                       # Number of ticks simulated
system.cpu.Branches                                 3                       # Number of branches fetched
system.cpu.committedInsts                          14                       # Number of instructions committed
system.cpu.committedOps                            22                       # Number of ops (including micro ops) committed
system.cpu.idle_fraction                            0                       # Percentage of idle cycles
system.cpu.l2bus.snoop_filter.hit_multi_requests            0                       # Number of requests hitting in the snoop filter with multiple (>1) holders of the requested data.
system.cpu.l2bus.snoop_filter.hit_multi_snoops            0                       # Number of snoops hitting in the snoop filter with multiple (>1) holders of the requested data.
system.cpu.l2bus.snoop_filter.hit_single_requests      2596682                       # Number of requests hitting in the snoop filter with a single holder of the requested data.
system.cpu.l2bus.snoop_filter.hit_single_snoops          313                       # Number of snoops hitting in the snoop filter with a single holder of the requested data.
system.cpu.l2bus.snoop_filter.tot_requests      5185466                       # Total number of requests made to the snoop filter.
system.cpu.l2bus.snoop_filter.tot_snoops          313                       # Total number of snoops made to the snoop filter.
system.cpu.mmucache.mmubus.snoop_filter.hit_multi_requests            0                       # Number of requests hitting in the snoop filter with multiple (>1) holders of the requested data.
system.cpu.mmucache.mmubus.snoop_filter.hit_multi_snoops            0                       # Number of snoops hitting in the snoop filter with multiple (>1) holders of the requested data.
system.cpu.mmucache.mmubus.snoop_filter.hit_single_requests            0                       # Number of requests hitting in the snoop filter with a single holder of the requested data.
system.cpu.mmucache.mmubus.snoop_filter.hit_single_snoops            0                       # Number of snoops hitting in the snoop filter with a single holder of the requested data.
system.cpu.mmucache.mmubus.snoop_filter.tot_requests            0                       # Total number of requests made to the snoop filter.
system.cpu.mmucache.mmubus.snoop_filter.tot_snoops            0                       # Total number of snoops made to the snoop filter.
system.cpu.not_idle_fraction                        1                       # Percentage of non-idle cycles
system.cpu.numCycles                               30                       # number of cpu cycles simulated
system.cpu.numWorkItemsCompleted                    0                       # number of work items this cpu completed
system.cpu.numWorkItemsStarted                      0                       # number of work items this cpu started
system.cpu.num_busy_cycles                         30                       # Number of busy cycles
system.cpu.num_cc_register_reads                   19                       # number of times the CC registers were read
system.cpu.num_cc_register_writes                   4                       # number of times the CC registers were written
system.cpu.num_conditional_control_insts            3                       # number of instructions that are conditional controls
system.cpu.num_fp_alu_accesses                     11                       # Number of float alu accesses
system.cpu.num_fp_insts                            11                       # number of float instructions
system.cpu.num_fp_register_reads                   17                       # number of times the floating registers were read
system.cpu.num_fp_register_writes                   9                       # number of times the floating registers were written
system.cpu.num_func_calls                           0                       # number of times a function call or return occured
system.cpu.num_idle_cycles                          0                       # Number of idle cycles
system.cpu.num_int_alu_accesses                    15                       # Number of integer alu accesses
system.cpu.num_int_insts                           15                       # number of integer instructions
system.cpu.num_int_register_reads                  28                       # number of times the integer registers were read
system.cpu.num_int_register_writes                  8                       # number of times the integer registers were written
system.cpu.num_load_insts                           5                       # Number of load instructions
system.cpu.num_mem_refs                             5                       # number of memory refs
system.cpu.num_store_insts                          0                       # Number of store instructions
system.cpu.num_vec_alu_accesses                     0                       # Number of vector alu accesses
system.cpu.num_vec_insts                            0                       # number of vector instructions
system.cpu.num_vec_register_reads                   0                       # number of times the vector registers were read
system.cpu.num_vec_register_writes                  0                       # number of times the vector registers were written
system.cpu.op_class::No_OpClass                     0      0.00%      0.00% # Class of executed instruction
system.cpu.op_class::IntAlu                        11     50.00%     50.00% # Class of executed instruction
system.cpu.op_class::IntMult                        0      0.00%     50.00% # Class of executed instruction
system.cpu.op_class::IntDiv                         0      0.00%     50.00% # Class of executed instruction
system.cpu.op_class::FloatAdd                       0      0.00%     50.00% # Class of executed instruction
system.cpu.op_class::FloatCmp                       0      0.00%     50.00% # Class of executed instruction
system.cpu.op_class::FloatCvt                       0      0.00%     50.00% # Class of executed instruction
system.cpu.op_class::FloatMult                      0      0.00%     50.00% # Class of executed instruction
system.cpu.op_class::FloatMultAcc                   0      0.00%     50.00% # Class of executed instruction
system.cpu.op_class::FloatDiv                       0      0.00%     50.00% # Class of executed instruction
system.cpu.op_class::FloatMisc                      0      0.00%     50.00% # Class of executed instruction
system.cpu.op_class::FloatSqrt                      0      0.00%     50.00% # Class of executed instruction
system.cpu.op_class::SimdAdd                        0      0.00%     50.00% # Class of executed instruction
system.cpu.op_class::SimdAddAcc                     0      0.00%     50.00% # Class of executed instruction
system.cpu.op_class::SimdAlu                        0      0.00%     50.00% # Class of executed instruction
system.cpu.op_class::SimdCmp                        0      0.00%     50.00% # Class of executed instruction
system.cpu.op_class::SimdCvt                        0      0.00%     50.00% # Class of executed instruction
system.cpu.op_class::SimdMisc                       0      0.00%     50.00% # Class of executed instruction
system.cpu.op_class::SimdMult                       0      0.00%     50.00% # Class of executed instruction
system.cpu.op_class::SimdMultAcc                    0      0.00%     50.00% # Class of executed instruction
system.cpu.op_class::SimdShift                      0      0.00%     50.00% # Class of executed instruction
system.cpu.op_class::SimdShiftAcc                   0      0.00%     50.00% # Class of executed instruction
system.cpu.op_class::SimdDiv                        0      0.00%     50.00% # Class of executed instruction
system.cpu.op_class::SimdSqrt                       0      0.00%     50.00% # Class of executed instruction
system.cpu.op_class::SimdFloatAdd                   1      4.55%     54.55% # Class of executed instruction
system.cpu.op_class::SimdFloatAlu                   0      0.00%     54.55% # Class of executed instruction
system.cpu.op_class::SimdFloatCmp                   0      0.00%     54.55% # Class of executed instruction
system.cpu.op_class::SimdFloatCvt                   2      9.09%     63.64% # Class of executed instruction
system.cpu.op_class::SimdFloatDiv                   1      4.55%     68.18% # Class of executed instruction
system.cpu.op_class::SimdFloatMisc                  0      0.00%     68.18% # Class of executed instruction
system.cpu.op_class::SimdFloatMult                  1      4.55%     72.73% # Class of executed instruction
system.cpu.op_class::SimdFloatMultAcc               0      0.00%     72.73% # Class of executed instruction
system.cpu.op_class::SimdFloatSqrt                  1      4.55%     77.27% # Class of executed instruction
system.cpu.op_class::SimdReduceAdd                  0      0.00%     77.27% # Class of executed instruction
system.cpu.op_class::SimdReduceAlu                  0      0.00%     77.27% # Class of executed instruction
system.cpu.op_class::SimdReduceCmp                  0      0.00%     77.27% # Class of executed instruction
system.cpu.op_class::SimdFloatReduceAdd             0      0.00%     77.27% # Class of executed instruction
system.cpu.op_class::SimdFloatReduceCmp             0      0.00%     77.27% # Class of executed instruction
system.cpu.op_class::SimdAes                        0      0.00%     77.27% # Class of executed instruction
system.cpu.op_class::SimdAesMix                     0      0.00%     77.27% # Class of executed instruction
system.cpu.op_class::SimdSha1Hash                   0      0.00%     77.27% # Class of executed instruction
system.cpu.op_class::SimdSha1Hash2                  0      0.00%     77.27% # Class of executed instruction
system.cpu.op_class::SimdSha256Hash                 0      0.00%     77.27% # Class of executed instruction
system.cpu.op_class::SimdSha256Hash2                0      0.00%     77.27% # Class of executed instruction
system.cpu.op_class::SimdShaSigma2                  0      0.00%     77.27% # Class of executed instruction
system.cpu.op_class::SimdShaSigma3                  0      0.00%     77.27% # Class of executed instruction
system.cpu.op_class::SimdPredAlu                    0      0.00%     77.27% # Class of executed instruction
system.cpu.op_class::MemRead                        1      4.55%     81.82% # Class of executed instruction
system.cpu.op_class::MemWrite                       0      0.00%     81.82% # Class of executed instruction
system.cpu.op_class::FloatMemRead                   4     18.18%    100.00% # Class of executed instruction
system.cpu.op_class::FloatMemWrite                  0      0.00%    100.00% # Class of executed instruction
system.cpu.op_class::IprAccess                      0      0.00%    100.00% # Class of executed instruction
system.cpu.op_class::InstPrefetch                   0      0.00%    100.00% # Class of executed instruction
system.cpu.op_class::total                         22                       # Class of executed instruction
system.cpu.workload.numSyscalls                     0                       # Number of system calls
system.l3bus.snoop_filter.hit_multi_requests            0                       # Number of requests hitting in the snoop filter with multiple (>1) holders of the requested data.
system.l3bus.snoop_filter.hit_multi_snoops            0                       # Number of snoops hitting in the snoop filter with multiple (>1) holders of the requested data.
system.l3bus.snoop_filter.hit_single_requests       156930                       # Number of requests hitting in the snoop filter with a single holder of the requested data.
system.l3bus.snoop_filter.hit_single_snoops            0                       # Number of snoops hitting in the snoop filter with a single holder of the requested data.
system.l3bus.snoop_filter.tot_requests         318086                       # Total number of requests made to the snoop filter.
system.l3bus.snoop_filter.tot_snoops                0                       # Total number of snoops made to the snoop filter.
system.membus.snoop_filter.hit_multi_requests            0                       # Number of requests hitting in the snoop filter with multiple (>1) holders of the requested data.
system.membus.snoop_filter.hit_multi_snoops            0                       # Number of snoops hitting in the snoop filter with multiple (>1) holders of the requested data.
system.membus.snoop_filter.hit_single_requests        64779                       # Number of requests hitting in the snoop filter with a single holder of the requested data.
system.membus.snoop_filter.hit_single_snoops            0                       # Number of snoops hitting in the snoop filter with a single holder of the requested data.
system.membus.snoop_filter.tot_requests        198684                       # Total number of requests made to the snoop filter.
system.membus.snoop_filter.tot_snoops               0                       # Total number of snoops made to the snoop filter.
system.switch_cpus.cc_regfile_reads         147024586                       # number of cc regfile reads
system.switch_cpus.cc_regfile_writes         71453446                       # number of cc regfile writes
system.switch_cpus.committedInsts           250000000                       # Number of Instructions Simulated
system.switch_cpus.committedOps             381087492                       # Number of Ops (including micro ops) Simulated
system.switch_cpus.cpi                       0.512624                       # CPI: Cycles Per Instruction
system.switch_cpus.cpi_total                 0.512624                       # CPI: Total CPI of All Threads
system.switch_cpus.fp_regfile_reads         410744131                       # number of floating regfile reads
system.switch_cpus.fp_regfile_writes        196224158                       # number of floating regfile writes
system.switch_cpus.idleCycles                   12782                       # Total number of cycles that the CPU has spent unscheduled due to idling
system.switch_cpus.iew.branchMispredicts       276362                       # Number of branch mispredicts detected at execute
system.switch_cpus.iew.exec_branches         25790648                       # Number of branches executed
system.switch_cpus.iew.exec_nop                     0                       # number of nop insts executed
system.switch_cpus.iew.exec_rate             3.127208                       # Inst execution rate
system.switch_cpus.iew.exec_refs             80977197                       # number of memory reference insts executed
system.switch_cpus.iew.exec_stores           17190505                       # Number of stores executed
system.switch_cpus.iew.exec_swp                     0                       # number of swp insts executed
system.switch_cpus.iew.iewBlockCycles        31188375                       # Number of cycles IEW is blocking
system.switch_cpus.iew.iewDispLoadInsts      64832684                       # Number of dispatched load instructions
system.switch_cpus.iew.iewDispNonSpecInsts            0                       # Number of dispatched non-speculative instructions
system.switch_cpus.iew.iewDispSquashedInsts         1436                       # Number of squashed instructions skipped by dispatch
system.switch_cpus.iew.iewDispStoreInsts     17768626                       # Number of dispatched store instructions
system.switch_cpus.iew.iewDispatchedInsts    411569114                       # Number of instructions dispatched to IQ
system.switch_cpus.iew.iewExecLoadInsts      63786692                       # Number of load instructions executed
system.switch_cpus.iew.iewExecSquashedInsts       450677                       # Number of squashed instructions skipped in execute
system.switch_cpus.iew.iewExecutedInsts     400770591                       # Number of executed instructions
system.switch_cpus.iew.iewIQFullEvents         438237                       # Number of times the IQ has become full, causing a stall
system.switch_cpus.iew.iewIdleCycles                0                       # Number of cycles IEW is idle
system.switch_cpus.iew.iewLSQFullEvents         17722                       # Number of times the LSQ has become full, causing a stall
system.switch_cpus.iew.iewSquashCycles         275636                       # Number of cycles IEW is squashing
system.switch_cpus.iew.iewUnblockCycles        612990                       # Number of cycles IEW is unblocking
system.switch_cpus.iew.memOrderViolationEvents          617                       # Number of memory order violations
system.switch_cpus.iew.predictedNotTakenIncorrect       154269                       # Number of branches that were predicted not taken incorrectly
system.switch_cpus.iew.predictedTakenIncorrect       122093                       # Number of branches that were predicted taken incorrectly
system.switch_cpus.iew.wb_consumers         563109479                       # num instructions consuming a value
system.switch_cpus.iew.wb_count             400611907                       # cumulative count of insts written-back
system.switch_cpus.iew.wb_fanout             0.556188                       # average fanout of values written-back
system.switch_cpus.iew.wb_producers         313194777                       # num instructions producing a value
system.switch_cpus.iew.wb_rate               3.125969                       # insts written-back per cycle
system.switch_cpus.iew.wb_sent              400704572                       # cumulative count of insts sent to commit
system.switch_cpus.int_regfile_reads        331279369                       # number of integer regfile reads
system.switch_cpus.int_regfile_writes       151948321                       # number of integer regfile writes
system.switch_cpus.ipc                       1.950747                       # IPC: Instructions Per Cycle
system.switch_cpus.ipc_total                 1.950747                       # IPC: Total IPC of All Threads
system.switch_cpus.iq.FU_type_0::No_OpClass         1617      0.00%      0.00% # Type of FU issued
system.switch_cpus.iq.FU_type_0::IntAlu     196278551     48.92%     48.92% # Type of FU issued
system.switch_cpus.iq.FU_type_0::IntMult      2060749      0.51%     49.43% # Type of FU issued
system.switch_cpus.iq.FU_type_0::IntDiv             0      0.00%     49.43% # Type of FU issued
system.switch_cpus.iq.FU_type_0::FloatAdd      4025322      1.00%     50.44% # Type of FU issued
system.switch_cpus.iq.FU_type_0::FloatCmp            0      0.00%     50.44% # Type of FU issued
system.switch_cpus.iq.FU_type_0::FloatCvt            0      0.00%     50.44% # Type of FU issued
system.switch_cpus.iq.FU_type_0::FloatMult            0      0.00%     50.44% # Type of FU issued
system.switch_cpus.iq.FU_type_0::FloatMultAcc            0      0.00%     50.44% # Type of FU issued
system.switch_cpus.iq.FU_type_0::FloatDiv            0      0.00%     50.44% # Type of FU issued
system.switch_cpus.iq.FU_type_0::FloatMisc            0      0.00%     50.44% # Type of FU issued
system.switch_cpus.iq.FU_type_0::FloatSqrt            0      0.00%     50.44% # Type of FU issued
system.switch_cpus.iq.FU_type_0::SimdAdd            0      0.00%     50.44% # Type of FU issued
system.switch_cpus.iq.FU_type_0::SimdAddAcc            0      0.00%     50.44% # Type of FU issued
system.switch_cpus.iq.FU_type_0::SimdAlu      5731017      1.43%     51.87% # Type of FU issued
system.switch_cpus.iq.FU_type_0::SimdCmp            0      0.00%     51.87% # Type of FU issued
system.switch_cpus.iq.FU_type_0::SimdCvt            0      0.00%     51.87% # Type of FU issued
system.switch_cpus.iq.FU_type_0::SimdMisc      2220410      0.55%     52.42% # Type of FU issued
system.switch_cpus.iq.FU_type_0::SimdMult            0      0.00%     52.42% # Type of FU issued
system.switch_cpus.iq.FU_type_0::SimdMultAcc            0      0.00%     52.42% # Type of FU issued
system.switch_cpus.iq.FU_type_0::SimdShift            0      0.00%     52.42% # Type of FU issued
system.switch_cpus.iq.FU_type_0::SimdShiftAcc            0      0.00%     52.42% # Type of FU issued
system.switch_cpus.iq.FU_type_0::SimdDiv            0      0.00%     52.42% # Type of FU issued
system.switch_cpus.iq.FU_type_0::SimdSqrt            0      0.00%     52.42% # Type of FU issued
system.switch_cpus.iq.FU_type_0::SimdFloatAdd     42682552     10.64%     63.06% # Type of FU issued
system.switch_cpus.iq.FU_type_0::SimdFloatAlu            0      0.00%     63.06% # Type of FU issued
system.switch_cpus.iq.FU_type_0::SimdFloatCmp            0      0.00%     63.06% # Type of FU issued
system.switch_cpus.iq.FU_type_0::SimdFloatCvt     12443977      3.10%     66.16% # Type of FU issued
system.switch_cpus.iq.FU_type_0::SimdFloatDiv      2409678      0.60%     66.76% # Type of FU issued
system.switch_cpus.iq.FU_type_0::SimdFloatMisc            0      0.00%     66.76% # Type of FU issued
system.switch_cpus.iq.FU_type_0::SimdFloatMult     50307698     12.54%     79.30% # Type of FU issued
system.switch_cpus.iq.FU_type_0::SimdFloatMultAcc            0      0.00%     79.30% # Type of FU issued
system.switch_cpus.iq.FU_type_0::SimdFloatSqrt      1963404      0.49%     79.79% # Type of FU issued
system.switch_cpus.iq.FU_type_0::SimdReduceAdd            0      0.00%     79.79% # Type of FU issued
system.switch_cpus.iq.FU_type_0::SimdReduceAlu            0      0.00%     79.79% # Type of FU issued
system.switch_cpus.iq.FU_type_0::SimdReduceCmp            0      0.00%     79.79% # Type of FU issued
system.switch_cpus.iq.FU_type_0::SimdFloatReduceAdd            0      0.00%     79.79% # Type of FU issued
system.switch_cpus.iq.FU_type_0::SimdFloatReduceCmp            0      0.00%     79.79% # Type of FU issued
system.switch_cpus.iq.FU_type_0::SimdAes            0      0.00%     79.79% # Type of FU issued
system.switch_cpus.iq.FU_type_0::SimdAesMix            0      0.00%     79.79% # Type of FU issued
system.switch_cpus.iq.FU_type_0::SimdSha1Hash            0      0.00%     79.79% # Type of FU issued
system.switch_cpus.iq.FU_type_0::SimdSha1Hash2            0      0.00%     79.79% # Type of FU issued
system.switch_cpus.iq.FU_type_0::SimdSha256Hash            0      0.00%     79.79% # Type of FU issued
system.switch_cpus.iq.FU_type_0::SimdSha256Hash2            0      0.00%     79.79% # Type of FU issued
system.switch_cpus.iq.FU_type_0::SimdShaSigma2            0      0.00%     79.79% # Type of FU issued
system.switch_cpus.iq.FU_type_0::SimdShaSigma3            0      0.00%     79.79% # Type of FU issued
system.switch_cpus.iq.FU_type_0::SimdPredAlu            0      0.00%     79.79% # Type of FU issued
system.switch_cpus.iq.FU_type_0::MemRead     11403890      2.84%     82.63% # Type of FU issued
system.switch_cpus.iq.FU_type_0::MemWrite      5411221      1.35%     83.98% # Type of FU issued
system.switch_cpus.iq.FU_type_0::FloatMemRead     52485720     13.08%     97.06% # Type of FU issued
system.switch_cpus.iq.FU_type_0::FloatMemWrite     11795468      2.94%    100.00% # Type of FU issued
system.switch_cpus.iq.FU_type_0::IprAccess            0      0.00%    100.00% # Type of FU issued
system.switch_cpus.iq.FU_type_0::InstPrefetch            0      0.00%    100.00% # Type of FU issued
system.switch_cpus.iq.FU_type_0::total      401221274                       # Type of FU issued
system.switch_cpus.iq.fp_alu_accesses       223441574                       # Number of floating point alu accesses
system.switch_cpus.iq.fp_inst_queue_reads    444690813                       # Number of floating instruction queue reads
system.switch_cpus.iq.fp_inst_queue_wakeup_accesses    220880532                       # Number of floating instruction queue wakeup accesses
system.switch_cpus.iq.fp_inst_queue_writes    243286200                       # Number of floating instruction queue writes
system.switch_cpus.iq.fu_busy_cnt             3148771                       # FU busy when requested
system.switch_cpus.iq.fu_busy_rate           0.007848                       # FU busy rate (busy events/executed inst)
system.switch_cpus.iq.fu_full::No_OpClass            0      0.00%      0.00% # attempts to use FU when none available
system.switch_cpus.iq.fu_full::IntAlu           53980      1.71%      1.71% # attempts to use FU when none available
system.switch_cpus.iq.fu_full::IntMult              0      0.00%      1.71% # attempts to use FU when none available
system.switch_cpus.iq.fu_full::IntDiv               0      0.00%      1.71% # attempts to use FU when none available
system.switch_cpus.iq.fu_full::FloatAdd             0      0.00%      1.71% # attempts to use FU when none available
system.switch_cpus.iq.fu_full::FloatCmp             0      0.00%      1.71% # attempts to use FU when none available
system.switch_cpus.iq.fu_full::FloatCvt             0      0.00%      1.71% # attempts to use FU when none available
system.switch_cpus.iq.fu_full::FloatMult            0      0.00%      1.71% # attempts to use FU when none available
system.switch_cpus.iq.fu_full::FloatMultAcc            0      0.00%      1.71% # attempts to use FU when none available
system.switch_cpus.iq.fu_full::FloatDiv             0      0.00%      1.71% # attempts to use FU when none available
system.switch_cpus.iq.fu_full::FloatMisc            0      0.00%      1.71% # attempts to use FU when none available
system.switch_cpus.iq.fu_full::FloatSqrt            0      0.00%      1.71% # attempts to use FU when none available
system.switch_cpus.iq.fu_full::SimdAdd              0      0.00%      1.71% # attempts to use FU when none available
system.switch_cpus.iq.fu_full::SimdAddAcc            0      0.00%      1.71% # attempts to use FU when none available
system.switch_cpus.iq.fu_full::SimdAlu          70734      2.25%      3.96% # attempts to use FU when none available
system.switch_cpus.iq.fu_full::SimdCmp              0      0.00%      3.96% # attempts to use FU when none available
system.switch_cpus.iq.fu_full::SimdCvt              0      0.00%      3.96% # attempts to use FU when none available
system.switch_cpus.iq.fu_full::SimdMisc             0      0.00%      3.96% # attempts to use FU when none available
system.switch_cpus.iq.fu_full::SimdMult             0      0.00%      3.96% # attempts to use FU when none available
system.switch_cpus.iq.fu_full::SimdMultAcc            0      0.00%      3.96% # attempts to use FU when none available
system.switch_cpus.iq.fu_full::SimdShift            0      0.00%      3.96% # attempts to use FU when none available
system.switch_cpus.iq.fu_full::SimdShiftAcc            0      0.00%      3.96% # attempts to use FU when none available
system.switch_cpus.iq.fu_full::SimdDiv              0      0.00%      3.96% # attempts to use FU when none available
system.switch_cpus.iq.fu_full::SimdSqrt             0      0.00%      3.96% # attempts to use FU when none available
system.switch_cpus.iq.fu_full::SimdFloatAdd       355642     11.29%     15.26% # attempts to use FU when none available
system.switch_cpus.iq.fu_full::SimdFloatAlu            0      0.00%     15.26% # attempts to use FU when none available
system.switch_cpus.iq.fu_full::SimdFloatCmp            0      0.00%     15.26% # attempts to use FU when none available
system.switch_cpus.iq.fu_full::SimdFloatCvt            0      0.00%     15.26% # attempts to use FU when none available
system.switch_cpus.iq.fu_full::SimdFloatDiv            0      0.00%     15.26% # attempts to use FU when none available
system.switch_cpus.iq.fu_full::SimdFloatMisc            0      0.00%     15.26% # attempts to use FU when none available
system.switch_cpus.iq.fu_full::SimdFloatMult       181035      5.75%     21.00% # attempts to use FU when none available
system.switch_cpus.iq.fu_full::SimdFloatMultAcc            0      0.00%     21.00% # attempts to use FU when none available
system.switch_cpus.iq.fu_full::SimdFloatSqrt            0      0.00%     21.00% # attempts to use FU when none available
system.switch_cpus.iq.fu_full::SimdReduceAdd            0      0.00%     21.00% # attempts to use FU when none available
system.switch_cpus.iq.fu_full::SimdReduceAlu            0      0.00%     21.00% # attempts to use FU when none available
system.switch_cpus.iq.fu_full::SimdReduceCmp            0      0.00%     21.00% # attempts to use FU when none available
system.switch_cpus.iq.fu_full::SimdFloatReduceAdd            0      0.00%     21.00% # attempts to use FU when none available
system.switch_cpus.iq.fu_full::SimdFloatReduceCmp            0      0.00%     21.00% # attempts to use FU when none available
system.switch_cpus.iq.fu_full::SimdAes              0      0.00%     21.00% # attempts to use FU when none available
system.switch_cpus.iq.fu_full::SimdAesMix            0      0.00%     21.00% # attempts to use FU when none available
system.switch_cpus.iq.fu_full::SimdSha1Hash            0      0.00%     21.00% # attempts to use FU when none available
system.switch_cpus.iq.fu_full::SimdSha1Hash2            0      0.00%     21.00% # attempts to use FU when none available
system.switch_cpus.iq.fu_full::SimdSha256Hash            0      0.00%     21.00% # attempts to use FU when none available
system.switch_cpus.iq.fu_full::SimdSha256Hash2            0      0.00%     21.00% # attempts to use FU when none available
system.switch_cpus.iq.fu_full::SimdShaSigma2            0      0.00%     21.00% # attempts to use FU when none available
system.switch_cpus.iq.fu_full::SimdShaSigma3            0      0.00%     21.00% # attempts to use FU when none available
system.switch_cpus.iq.fu_full::SimdPredAlu            0      0.00%     21.00% # attempts to use FU when none available
system.switch_cpus.iq.fu_full::MemRead         491643     15.61%     36.62% # attempts to use FU when none available
system.switch_cpus.iq.fu_full::MemWrite        375584     11.93%     48.55% # attempts to use FU when none available
system.switch_cpus.iq.fu_full::FloatMemRead       822886     26.13%     74.68% # attempts to use FU when none available
system.switch_cpus.iq.fu_full::FloatMemWrite       797267     25.32%    100.00% # attempts to use FU when none available
system.switch_cpus.iq.fu_full::IprAccess            0      0.00%    100.00% # attempts to use FU when none available
system.switch_cpus.iq.fu_full::InstPrefetch            0      0.00%    100.00% # attempts to use FU when none available
system.switch_cpus.iq.int_alu_accesses      180926854                       # Number of integer alu accesses
system.switch_cpus.iq.int_inst_queue_reads    489137386                       # Number of integer instruction queue reads
system.switch_cpus.iq.int_inst_queue_wakeup_accesses    179731375                       # Number of integer instruction queue wakeup accesses
system.switch_cpus.iq.int_inst_queue_writes    198765041                       # Number of integer instruction queue writes
system.switch_cpus.iq.iqInstsAdded          411569114                       # Number of instructions added to the IQ (excludes non-spec)
system.switch_cpus.iq.iqInstsIssued         401221274                       # Number of instructions issued
system.switch_cpus.iq.iqSquashedInstsExamined     30481510                       # Number of squashed instructions iterated over during squash; mainly for profiling
system.switch_cpus.iq.iqSquashedInstsIssued        93616                       # Number of squashed instructions issued
system.switch_cpus.iq.iqSquashedOperandsExamined     31716250                       # Number of squashed operands that are examined and possibly removed from graph
system.switch_cpus.iq.issued_per_cycle::samples    128143270                       # Number of insts issued each cycle
system.switch_cpus.iq.issued_per_cycle::mean     3.131037                       # Number of insts issued each cycle
system.switch_cpus.iq.issued_per_cycle::stdev     2.619648                       # Number of insts issued each cycle
system.switch_cpus.iq.issued_per_cycle::underflows            0      0.00%      0.00% # Number of insts issued each cycle
system.switch_cpus.iq.issued_per_cycle::0     36377092     28.39%     28.39% # Number of insts issued each cycle
system.switch_cpus.iq.issued_per_cycle::1      7584947      5.92%     34.31% # Number of insts issued each cycle
system.switch_cpus.iq.issued_per_cycle::2     11916645      9.30%     43.61% # Number of insts issued each cycle
system.switch_cpus.iq.issued_per_cycle::3     13128539     10.25%     53.85% # Number of insts issued each cycle
system.switch_cpus.iq.issued_per_cycle::4     17294537     13.50%     67.35% # Number of insts issued each cycle
system.switch_cpus.iq.issued_per_cycle::5     14514666     11.33%     78.67% # Number of insts issued each cycle
system.switch_cpus.iq.issued_per_cycle::6     11477823      8.96%     87.63% # Number of insts issued each cycle
system.switch_cpus.iq.issued_per_cycle::7      6993164      5.46%     93.09% # Number of insts issued each cycle
system.switch_cpus.iq.issued_per_cycle::8      8855857      6.91%    100.00% # Number of insts issued each cycle
system.switch_cpus.iq.issued_per_cycle::overflows            0      0.00%    100.00% # Number of insts issued each cycle
system.switch_cpus.iq.issued_per_cycle::min_value            0                       # Number of insts issued each cycle
system.switch_cpus.iq.issued_per_cycle::max_value            8                       # Number of insts issued each cycle
system.switch_cpus.iq.issued_per_cycle::total    128143270                       # Number of insts issued each cycle
system.switch_cpus.iq.rate                   3.130724                       # Inst issue rate
system.switch_cpus.iq.vec_alu_accesses              0                       # Number of vector alu accesses
system.switch_cpus.iq.vec_inst_queue_reads            0                       # Number of vector instruction queue reads
system.switch_cpus.iq.vec_inst_queue_wakeup_accesses            0                       # Number of vector instruction queue wakeup accesses
system.switch_cpus.iq.vec_inst_queue_writes            0                       # Number of vector instruction queue writes
system.switch_cpus.memDep0.conflictingLoads      4963926                       # Number of conflicting loads.
system.switch_cpus.memDep0.conflictingStores       457047                       # Number of conflicting stores.
system.switch_cpus.memDep0.insertedLoads     64832684                       # Number of loads inserted to the mem dependence unit.
system.switch_cpus.memDep0.insertedStores     17768626                       # Number of stores inserted to the mem dependence unit.
system.switch_cpus.misc_regfile_reads       156065563                       # number of misc regfile reads
system.switch_cpus.misc_regfile_writes              1                       # number of misc regfile writes
system.switch_cpus.numCycles                128156052                       # number of cpu cycles simulated
system.switch_cpus.numWorkItemsCompleted            0                       # number of work items this cpu completed
system.switch_cpus.numWorkItemsStarted              0                       # number of work items this cpu started
system.switch_cpus.timesIdled                      74                       # Number of times that the entire CPU went into an idle state and unscheduled itself
system.clk_domain.clock                           333                       # Clock period in ticks
system.cpu.dcache.demand_hits::.cpu.data            1                       # number of demand (read+write) hits
system.cpu.dcache.demand_hits::.switch_cpus.data     73765850                       # number of demand (read+write) hits
system.cpu.dcache.demand_hits::total         73765851                       # number of demand (read+write) hits
system.cpu.dcache.overall_hits::.cpu.data            1                       # number of overall hits
system.cpu.dcache.overall_hits::.switch_cpus.data     73765850                       # number of overall hits
system.cpu.dcache.overall_hits::total        73765851                       # number of overall hits
system.cpu.dcache.demand_misses::.cpu.data            4                       # number of demand (read+write) misses
system.cpu.dcache.demand_misses::.switch_cpus.data      3631627                       # number of demand (read+write) misses
system.cpu.dcache.demand_misses::total        3631631                       # number of demand (read+write) misses
system.cpu.dcache.overall_misses::.cpu.data            4                       # number of overall misses
system.cpu.dcache.overall_misses::.switch_cpus.data      3631627                       # number of overall misses
system.cpu.dcache.overall_misses::total       3631631                       # number of overall misses
system.cpu.dcache.demand_miss_latency::.switch_cpus.data  30309311682                       # number of demand (read+write) miss cycles
system.cpu.dcache.demand_miss_latency::total  30309311682                       # number of demand (read+write) miss cycles
system.cpu.dcache.overall_miss_latency::.switch_cpus.data  30309311682                       # number of overall miss cycles
system.cpu.dcache.overall_miss_latency::total  30309311682                       # number of overall miss cycles
system.cpu.dcache.demand_accesses::.cpu.data            5                       # number of demand (read+write) accesses
system.cpu.dcache.demand_accesses::.switch_cpus.data     77397477                       # number of demand (read+write) accesses
system.cpu.dcache.demand_accesses::total     77397482                       # number of demand (read+write) accesses
system.cpu.dcache.overall_accesses::.cpu.data            5                       # number of overall (read+write) accesses
system.cpu.dcache.overall_accesses::.switch_cpus.data     77397477                       # number of overall (read+write) accesses
system.cpu.dcache.overall_accesses::total     77397482                       # number of overall (read+write) accesses
system.cpu.dcache.demand_miss_rate::.cpu.data     0.800000                       # miss rate for demand accesses
system.cpu.dcache.demand_miss_rate::.switch_cpus.data     0.046922                       # miss rate for demand accesses
system.cpu.dcache.demand_miss_rate::total     0.046922                       # miss rate for demand accesses
system.cpu.dcache.overall_miss_rate::.cpu.data     0.800000                       # miss rate for overall accesses
system.cpu.dcache.overall_miss_rate::.switch_cpus.data     0.046922                       # miss rate for overall accesses
system.cpu.dcache.overall_miss_rate::total     0.046922                       # miss rate for overall accesses
system.cpu.dcache.demand_avg_miss_latency::.switch_cpus.data  8345.931915                       # average overall miss latency
system.cpu.dcache.demand_avg_miss_latency::total  8345.922722                       # average overall miss latency
system.cpu.dcache.overall_avg_miss_latency::.switch_cpus.data  8345.931915                       # average overall miss latency
system.cpu.dcache.overall_avg_miss_latency::total  8345.922722                       # average overall miss latency
system.cpu.dcache.blocked_cycles::no_mshrs            0                       # number of cycles access was blocked
system.cpu.dcache.blocked_cycles::no_targets          186                       # number of cycles access was blocked
system.cpu.dcache.blocked::no_mshrs                 0                       # number of cycles access was blocked
system.cpu.dcache.blocked::no_targets               1                       # number of cycles access was blocked
system.cpu.dcache.avg_blocked_cycles::no_mshrs          nan                       # average number of cycles each access was blocked
system.cpu.dcache.avg_blocked_cycles::no_targets          186                       # average number of cycles each access was blocked
system.cpu.dcache.writebacks::.writebacks      2588166                       # number of writebacks
system.cpu.dcache.writebacks::total           2588166                       # number of writebacks
system.cpu.dcache.demand_mshr_hits::.switch_cpus.data      1034437                       # number of demand (read+write) MSHR hits
system.cpu.dcache.demand_mshr_hits::total      1034437                       # number of demand (read+write) MSHR hits
system.cpu.dcache.overall_mshr_hits::.switch_cpus.data      1034437                       # number of overall MSHR hits
system.cpu.dcache.overall_mshr_hits::total      1034437                       # number of overall MSHR hits
system.cpu.dcache.demand_mshr_misses::.switch_cpus.data      2597190                       # number of demand (read+write) MSHR misses
system.cpu.dcache.demand_mshr_misses::total      2597190                       # number of demand (read+write) MSHR misses
system.cpu.dcache.overall_mshr_misses::.switch_cpus.data      2597190                       # number of overall MSHR misses
system.cpu.dcache.overall_mshr_misses::total      2597190                       # number of overall MSHR misses
system.cpu.dcache.demand_mshr_miss_latency::.switch_cpus.data  23022875079                       # number of demand (read+write) MSHR miss cycles
system.cpu.dcache.demand_mshr_miss_latency::total  23022875079                       # number of demand (read+write) MSHR miss cycles
system.cpu.dcache.overall_mshr_miss_latency::.switch_cpus.data  23022875079                       # number of overall MSHR miss cycles
system.cpu.dcache.overall_mshr_miss_latency::total  23022875079                       # number of overall MSHR miss cycles
system.cpu.dcache.demand_mshr_miss_rate::.switch_cpus.data     0.033557                       # mshr miss rate for demand accesses
system.cpu.dcache.demand_mshr_miss_rate::total     0.033557                       # mshr miss rate for demand accesses
system.cpu.dcache.overall_mshr_miss_rate::.switch_cpus.data     0.033557                       # mshr miss rate for overall accesses
system.cpu.dcache.overall_mshr_miss_rate::total     0.033557                       # mshr miss rate for overall accesses
system.cpu.dcache.demand_avg_mshr_miss_latency::.switch_cpus.data  8864.532467                       # average overall mshr miss latency
system.cpu.dcache.demand_avg_mshr_miss_latency::total  8864.532467                       # average overall mshr miss latency
system.cpu.dcache.overall_avg_mshr_miss_latency::.switch_cpus.data  8864.532467                       # average overall mshr miss latency
system.cpu.dcache.overall_avg_mshr_miss_latency::total  8864.532467                       # average overall mshr miss latency
system.cpu.dcache.replacements                2588166                       # number of replacements
system.cpu.dcache.ReadReq_hits::.cpu.data            1                       # number of ReadReq hits
system.cpu.dcache.ReadReq_hits::.switch_cpus.data     59672269                       # number of ReadReq hits
system.cpu.dcache.ReadReq_hits::total        59672270                       # number of ReadReq hits
system.cpu.dcache.ReadReq_misses::.cpu.data            4                       # number of ReadReq misses
system.cpu.dcache.ReadReq_misses::.switch_cpus.data      3623089                       # number of ReadReq misses
system.cpu.dcache.ReadReq_misses::total       3623093                       # number of ReadReq misses
system.cpu.dcache.ReadReq_miss_latency::.switch_cpus.data  30268724310                       # number of ReadReq miss cycles
system.cpu.dcache.ReadReq_miss_latency::total  30268724310                       # number of ReadReq miss cycles
system.cpu.dcache.ReadReq_accesses::.cpu.data            5                       # number of ReadReq accesses(hits+misses)
system.cpu.dcache.ReadReq_accesses::.switch_cpus.data     63295358                       # number of ReadReq accesses(hits+misses)
system.cpu.dcache.ReadReq_accesses::total     63295363                       # number of ReadReq accesses(hits+misses)
system.cpu.dcache.ReadReq_miss_rate::.cpu.data     0.800000                       # miss rate for ReadReq accesses
system.cpu.dcache.ReadReq_miss_rate::.switch_cpus.data     0.057241                       # miss rate for ReadReq accesses
system.cpu.dcache.ReadReq_miss_rate::total     0.057241                       # miss rate for ReadReq accesses
system.cpu.dcache.ReadReq_avg_miss_latency::.switch_cpus.data  8354.397121                       # average ReadReq miss latency
system.cpu.dcache.ReadReq_avg_miss_latency::total  8354.387897                       # average ReadReq miss latency
system.cpu.dcache.ReadReq_mshr_hits::.switch_cpus.data      1034437                       # number of ReadReq MSHR hits
system.cpu.dcache.ReadReq_mshr_hits::total      1034437                       # number of ReadReq MSHR hits
system.cpu.dcache.ReadReq_mshr_misses::.switch_cpus.data      2588652                       # number of ReadReq MSHR misses
system.cpu.dcache.ReadReq_mshr_misses::total      2588652                       # number of ReadReq MSHR misses
system.cpu.dcache.ReadReq_mshr_miss_latency::.switch_cpus.data  22985130861                       # number of ReadReq MSHR miss cycles
system.cpu.dcache.ReadReq_mshr_miss_latency::total  22985130861                       # number of ReadReq MSHR miss cycles
system.cpu.dcache.ReadReq_mshr_miss_rate::.switch_cpus.data     0.040898                       # mshr miss rate for ReadReq accesses
system.cpu.dcache.ReadReq_mshr_miss_rate::total     0.040898                       # mshr miss rate for ReadReq accesses
system.cpu.dcache.ReadReq_avg_mshr_miss_latency::.switch_cpus.data  8879.189192                       # average ReadReq mshr miss latency
system.cpu.dcache.ReadReq_avg_mshr_miss_latency::total  8879.189192                       # average ReadReq mshr miss latency
system.cpu.dcache.WriteReq_hits::.switch_cpus.data     14093581                       # number of WriteReq hits
system.cpu.dcache.WriteReq_hits::total       14093581                       # number of WriteReq hits
system.cpu.dcache.WriteReq_misses::.switch_cpus.data         8538                       # number of WriteReq misses
system.cpu.dcache.WriteReq_misses::total         8538                       # number of WriteReq misses
system.cpu.dcache.WriteReq_miss_latency::.switch_cpus.data     40587372                       # number of WriteReq miss cycles
system.cpu.dcache.WriteReq_miss_latency::total     40587372                       # number of WriteReq miss cycles
system.cpu.dcache.WriteReq_accesses::.switch_cpus.data     14102119                       # number of WriteReq accesses(hits+misses)
system.cpu.dcache.WriteReq_accesses::total     14102119                       # number of WriteReq accesses(hits+misses)
system.cpu.dcache.WriteReq_miss_rate::.switch_cpus.data     0.000605                       # miss rate for WriteReq accesses
system.cpu.dcache.WriteReq_miss_rate::total     0.000605                       # miss rate for WriteReq accesses
system.cpu.dcache.WriteReq_avg_miss_latency::.switch_cpus.data  4753.732959                       # average WriteReq miss latency
system.cpu.dcache.WriteReq_avg_miss_latency::total  4753.732959                       # average WriteReq miss latency
system.cpu.dcache.WriteReq_mshr_misses::.switch_cpus.data         8538                       # number of WriteReq MSHR misses
system.cpu.dcache.WriteReq_mshr_misses::total         8538                       # number of WriteReq MSHR misses
system.cpu.dcache.WriteReq_mshr_miss_latency::.switch_cpus.data     37744218                       # number of WriteReq MSHR miss cycles
system.cpu.dcache.WriteReq_mshr_miss_latency::total     37744218                       # number of WriteReq MSHR miss cycles
system.cpu.dcache.WriteReq_mshr_miss_rate::.switch_cpus.data     0.000605                       # mshr miss rate for WriteReq accesses
system.cpu.dcache.WriteReq_mshr_miss_rate::total     0.000605                       # mshr miss rate for WriteReq accesses
system.cpu.dcache.WriteReq_avg_mshr_miss_latency::.switch_cpus.data  4420.732959                       # average WriteReq mshr miss latency
system.cpu.dcache.WriteReq_avg_mshr_miss_latency::total  4420.732959                       # average WriteReq mshr miss latency
system.cpu.dcache.power_state.pwrStateResidencyTicks::UNDEFINED 16934578809993                       # Cumulative time (in ticks) in various power states
system.cpu.dcache.tags.tagsinuse           511.795518                       # Cycle average of tags in use
system.cpu.dcache.tags.total_refs            76366308                       # Total number of references to valid blocks.
system.cpu.dcache.tags.sampled_refs           2588678                       # Sample count of references to valid blocks.
system.cpu.dcache.tags.avg_refs             29.500119                       # Average number of references to valid blocks.
system.cpu.dcache.tags.warmup_cycle      16891902837018                       # Cycle when the warmup percentage was hit.
system.cpu.dcache.tags.occ_blocks::.cpu.data     3.999999                       # Average occupied blocks per requestor
system.cpu.dcache.tags.occ_blocks::.switch_cpus.data   507.795519                       # Average occupied blocks per requestor
system.cpu.dcache.tags.occ_percent::.cpu.data     0.007812                       # Average percentage of cache occupancy
system.cpu.dcache.tags.occ_percent::.switch_cpus.data     0.991788                       # Average percentage of cache occupancy
system.cpu.dcache.tags.occ_percent::total     0.999601                       # Average percentage of cache occupancy
system.cpu.dcache.tags.occ_task_id_blocks::1024          512                       # Occupied blocks per task id
system.cpu.dcache.tags.age_task_id_blocks_1024::0          428                       # Occupied blocks per task id
system.cpu.dcache.tags.age_task_id_blocks_1024::1           58                       # Occupied blocks per task id
system.cpu.dcache.tags.age_task_id_blocks_1024::2            3                       # Occupied blocks per task id
system.cpu.dcache.tags.age_task_id_blocks_1024::3            6                       # Occupied blocks per task id
system.cpu.dcache.tags.age_task_id_blocks_1024::4           17                       # Occupied blocks per task id
system.cpu.dcache.tags.occ_task_id_percent::1024            1                       # Percentage of cache occupancy per task id
system.cpu.dcache.tags.tag_accesses         621768534                       # Number of tag accesses
system.cpu.dcache.tags.data_accesses        621768534                       # Number of data accesses
system.cpu.dcache.tags.power_state.pwrStateResidencyTicks::UNDEFINED 16934578809993                       # Cumulative time (in ticks) in various power states
system.cpu.dtb.rdAccesses                           5                       # TLB accesses on read requests
system.cpu.dtb.wrAccesses                           0                       # TLB accesses on write requests
system.cpu.dtb.rdMisses                             0                       # TLB misses on read requests
system.cpu.dtb.wrMisses                             0                       # TLB misses on write requests
system.cpu.dtb.walker.power_state.pwrStateResidencyTicks::UNDEFINED 16934578809993                       # Cumulative time (in ticks) in various power states
system.cpu.icache.demand_hits::.cpu.inst           20                       # number of demand (read+write) hits
system.cpu.icache.demand_hits::.switch_cpus.inst     31398539                       # number of demand (read+write) hits
system.cpu.icache.demand_hits::total         31398559                       # number of demand (read+write) hits
system.cpu.icache.overall_hits::.cpu.inst           20                       # number of overall hits
system.cpu.icache.overall_hits::.switch_cpus.inst     31398539                       # number of overall hits
system.cpu.icache.overall_hits::total        31398559                       # number of overall hits
system.cpu.icache.demand_misses::.cpu.inst            2                       # number of demand (read+write) misses
system.cpu.icache.demand_misses::.switch_cpus.inst          121                       # number of demand (read+write) misses
system.cpu.icache.demand_misses::total            123                       # number of demand (read+write) misses
system.cpu.icache.overall_misses::.cpu.inst            2                       # number of overall misses
system.cpu.icache.overall_misses::.switch_cpus.inst          121                       # number of overall misses
system.cpu.icache.overall_misses::total           123                       # number of overall misses
system.cpu.icache.demand_miss_latency::.switch_cpus.inst     10099557                       # number of demand (read+write) miss cycles
system.cpu.icache.demand_miss_latency::total     10099557                       # number of demand (read+write) miss cycles
system.cpu.icache.overall_miss_latency::.switch_cpus.inst     10099557                       # number of overall miss cycles
system.cpu.icache.overall_miss_latency::total     10099557                       # number of overall miss cycles
system.cpu.icache.demand_accesses::.cpu.inst           22                       # number of demand (read+write) accesses
system.cpu.icache.demand_accesses::.switch_cpus.inst     31398660                       # number of demand (read+write) accesses
system.cpu.icache.demand_accesses::total     31398682                       # number of demand (read+write) accesses
system.cpu.icache.overall_accesses::.cpu.inst           22                       # number of overall (read+write) accesses
system.cpu.icache.overall_accesses::.switch_cpus.inst     31398660                       # number of overall (read+write) accesses
system.cpu.icache.overall_accesses::total     31398682                       # number of overall (read+write) accesses
system.cpu.icache.demand_miss_rate::.cpu.inst     0.090909                       # miss rate for demand accesses
system.cpu.icache.demand_miss_rate::.switch_cpus.inst     0.000004                       # miss rate for demand accesses
system.cpu.icache.demand_miss_rate::total     0.000004                       # miss rate for demand accesses
system.cpu.icache.overall_miss_rate::.cpu.inst     0.090909                       # miss rate for overall accesses
system.cpu.icache.overall_miss_rate::.switch_cpus.inst     0.000004                       # miss rate for overall accesses
system.cpu.icache.overall_miss_rate::total     0.000004                       # miss rate for overall accesses
system.cpu.icache.demand_avg_miss_latency::.switch_cpus.inst 83467.413223                       # average overall miss latency
system.cpu.icache.demand_avg_miss_latency::total 82110.219512                       # average overall miss latency
system.cpu.icache.overall_avg_miss_latency::.switch_cpus.inst 83467.413223                       # average overall miss latency
system.cpu.icache.overall_avg_miss_latency::total 82110.219512                       # average overall miss latency
system.cpu.icache.blocked_cycles::no_mshrs            0                       # number of cycles access was blocked
system.cpu.icache.blocked_cycles::no_targets            0                       # number of cycles access was blocked
system.cpu.icache.blocked::no_mshrs                 0                       # number of cycles access was blocked
system.cpu.icache.blocked::no_targets               0                       # number of cycles access was blocked
system.cpu.icache.avg_blocked_cycles::no_mshrs          nan                       # average number of cycles each access was blocked
system.cpu.icache.avg_blocked_cycles::no_targets          nan                       # average number of cycles each access was blocked
system.cpu.icache.demand_mshr_hits::.switch_cpus.inst           17                       # number of demand (read+write) MSHR hits
system.cpu.icache.demand_mshr_hits::total           17                       # number of demand (read+write) MSHR hits
system.cpu.icache.overall_mshr_hits::.switch_cpus.inst           17                       # number of overall MSHR hits
system.cpu.icache.overall_mshr_hits::total           17                       # number of overall MSHR hits
system.cpu.icache.demand_mshr_misses::.switch_cpus.inst          104                       # number of demand (read+write) MSHR misses
system.cpu.icache.demand_mshr_misses::total          104                       # number of demand (read+write) MSHR misses
system.cpu.icache.overall_mshr_misses::.switch_cpus.inst          104                       # number of overall MSHR misses
system.cpu.icache.overall_mshr_misses::total          104                       # number of overall MSHR misses
system.cpu.icache.demand_mshr_miss_latency::.switch_cpus.inst      8557767                       # number of demand (read+write) MSHR miss cycles
system.cpu.icache.demand_mshr_miss_latency::total      8557767                       # number of demand (read+write) MSHR miss cycles
system.cpu.icache.overall_mshr_miss_latency::.switch_cpus.inst      8557767                       # number of overall MSHR miss cycles
system.cpu.icache.overall_mshr_miss_latency::total      8557767                       # number of overall MSHR miss cycles
system.cpu.icache.demand_mshr_miss_rate::.switch_cpus.inst     0.000003                       # mshr miss rate for demand accesses
system.cpu.icache.demand_mshr_miss_rate::total     0.000003                       # mshr miss rate for demand accesses
system.cpu.icache.overall_mshr_miss_rate::.switch_cpus.inst     0.000003                       # mshr miss rate for overall accesses
system.cpu.icache.overall_mshr_miss_rate::total     0.000003                       # mshr miss rate for overall accesses
system.cpu.icache.demand_avg_mshr_miss_latency::.switch_cpus.inst 82286.221154                       # average overall mshr miss latency
system.cpu.icache.demand_avg_mshr_miss_latency::total 82286.221154                       # average overall mshr miss latency
system.cpu.icache.overall_avg_mshr_miss_latency::.switch_cpus.inst 82286.221154                       # average overall mshr miss latency
system.cpu.icache.overall_avg_mshr_miss_latency::total 82286.221154                       # average overall mshr miss latency
system.cpu.icache.replacements                      0                       # number of replacements
system.cpu.icache.ReadReq_hits::.cpu.inst           20                       # number of ReadReq hits
system.cpu.icache.ReadReq_hits::.switch_cpus.inst     31398539                       # number of ReadReq hits
system.cpu.icache.ReadReq_hits::total        31398559                       # number of ReadReq hits
system.cpu.icache.ReadReq_misses::.cpu.inst            2                       # number of ReadReq misses
system.cpu.icache.ReadReq_misses::.switch_cpus.inst          121                       # number of ReadReq misses
system.cpu.icache.ReadReq_misses::total           123                       # number of ReadReq misses
system.cpu.icache.ReadReq_miss_latency::.switch_cpus.inst     10099557                       # number of ReadReq miss cycles
system.cpu.icache.ReadReq_miss_latency::total     10099557                       # number of ReadReq miss cycles
system.cpu.icache.ReadReq_accesses::.cpu.inst           22                       # number of ReadReq accesses(hits+misses)
system.cpu.icache.ReadReq_accesses::.switch_cpus.inst     31398660                       # number of ReadReq accesses(hits+misses)
system.cpu.icache.ReadReq_accesses::total     31398682                       # number of ReadReq accesses(hits+misses)
system.cpu.icache.ReadReq_miss_rate::.cpu.inst     0.090909                       # miss rate for ReadReq accesses
system.cpu.icache.ReadReq_miss_rate::.switch_cpus.inst     0.000004                       # miss rate for ReadReq accesses
system.cpu.icache.ReadReq_miss_rate::total     0.000004                       # miss rate for ReadReq accesses
system.cpu.icache.ReadReq_avg_miss_latency::.switch_cpus.inst 83467.413223                       # average ReadReq miss latency
system.cpu.icache.ReadReq_avg_miss_latency::total 82110.219512                       # average ReadReq miss latency
system.cpu.icache.ReadReq_mshr_hits::.switch_cpus.inst           17                       # number of ReadReq MSHR hits
system.cpu.icache.ReadReq_mshr_hits::total           17                       # number of ReadReq MSHR hits
system.cpu.icache.ReadReq_mshr_misses::.switch_cpus.inst          104                       # number of ReadReq MSHR misses
system.cpu.icache.ReadReq_mshr_misses::total          104                       # number of ReadReq MSHR misses
system.cpu.icache.ReadReq_mshr_miss_latency::.switch_cpus.inst      8557767                       # number of ReadReq MSHR miss cycles
system.cpu.icache.ReadReq_mshr_miss_latency::total      8557767                       # number of ReadReq MSHR miss cycles
system.cpu.icache.ReadReq_mshr_miss_rate::.switch_cpus.inst     0.000003                       # mshr miss rate for ReadReq accesses
system.cpu.icache.ReadReq_mshr_miss_rate::total     0.000003                       # mshr miss rate for ReadReq accesses
system.cpu.icache.ReadReq_avg_mshr_miss_latency::.switch_cpus.inst 82286.221154                       # average ReadReq mshr miss latency
system.cpu.icache.ReadReq_avg_mshr_miss_latency::total 82286.221154                       # average ReadReq mshr miss latency
system.cpu.icache.power_state.pwrStateResidencyTicks::UNDEFINED 16934578809993                       # Cumulative time (in ticks) in various power states
system.cpu.icache.tags.tagsinuse           105.723977                       # Cycle average of tags in use
system.cpu.icache.tags.total_refs            31398665                       # Total number of references to valid blocks.
system.cpu.icache.tags.sampled_refs               106                       # Sample count of references to valid blocks.
system.cpu.icache.tags.avg_refs          296213.820755                       # Average number of references to valid blocks.
system.cpu.icache.tags.warmup_cycle      16891902834687                       # Cycle when the warmup percentage was hit.
system.cpu.icache.tags.occ_blocks::.cpu.inst     2.000000                       # Average occupied blocks per requestor
system.cpu.icache.tags.occ_blocks::.switch_cpus.inst   103.723977                       # Average occupied blocks per requestor
system.cpu.icache.tags.occ_percent::.cpu.inst     0.003906                       # Average percentage of cache occupancy
system.cpu.icache.tags.occ_percent::.switch_cpus.inst     0.202586                       # Average percentage of cache occupancy
system.cpu.icache.tags.occ_percent::total     0.206492                       # Average percentage of cache occupancy
system.cpu.icache.tags.occ_task_id_blocks::1024          106                       # Occupied blocks per task id
system.cpu.icache.tags.age_task_id_blocks_1024::4          106                       # Occupied blocks per task id
system.cpu.icache.tags.occ_task_id_percent::1024     0.207031                       # Percentage of cache occupancy per task id
system.cpu.icache.tags.tag_accesses         251189562                       # Number of tag accesses
system.cpu.icache.tags.data_accesses        251189562                       # Number of data accesses
system.cpu.icache.tags.power_state.pwrStateResidencyTicks::UNDEFINED 16934578809993                       # Cumulative time (in ticks) in various power states
system.cpu.interrupts.clk_domain.clock           5328                       # Clock period in ticks
system.cpu.itb.rdAccesses                           0                       # TLB accesses on read requests
system.cpu.itb.wrAccesses                          22                       # TLB accesses on write requests
system.cpu.itb.rdMisses                             0                       # TLB misses on read requests
system.cpu.itb.wrMisses                             0                       # TLB misses on write requests
system.cpu.itb.walker.power_state.pwrStateResidencyTicks::UNDEFINED 16934578809993                       # Cumulative time (in ticks) in various power states
system.cpu.l2bus.trans_dist::ReadResp         2588762                       # Transaction distribution
system.cpu.l2bus.trans_dist::WritebackDirty       819749                       # Transaction distribution
system.cpu.l2bus.trans_dist::WritebackClean      1925660                       # Transaction distribution
system.cpu.l2bus.trans_dist::UpgradeReq          8516                       # Transaction distribution
system.cpu.l2bus.trans_dist::UpgradeResp         8516                       # Transaction distribution
system.cpu.l2bus.trans_dist::ReadExReq             22                       # Transaction distribution
system.cpu.l2bus.trans_dist::ReadExResp            22                       # Transaction distribution
system.cpu.l2bus.trans_dist::ReadSharedReq      2588762                       # Transaction distribution
system.cpu.l2bus.pkt_count_system.cpu.icache.mem_side_port::system.cpu.l2cache.cpu_side_port          212                       # Packet count per connected requestor and responder (bytes)
system.cpu.l2bus.pkt_count_system.cpu.dcache.mem_side_port::system.cpu.l2cache.cpu_side_port      7782554                       # Packet count per connected requestor and responder (bytes)
system.cpu.l2bus.pkt_count::total             7782766                       # Packet count per connected requestor and responder (bytes)
system.cpu.l2bus.pkt_size_system.cpu.icache.mem_side_port::system.cpu.l2cache.cpu_side_port         6784                       # Cumulative packet size per connected requestor and responder (bytes)
system.cpu.l2bus.pkt_size_system.cpu.dcache.mem_side_port::system.cpu.l2cache.cpu_side_port    331318016                       # Cumulative packet size per connected requestor and responder (bytes)
system.cpu.l2bus.pkt_size::total            331324800                       # Cumulative packet size per connected requestor and responder (bytes)
system.cpu.l2bus.snoops                        157243                       # Total snoops (count)
system.cpu.l2bus.snoopTraffic                10063552                       # Total snoop traffic (bytes)
system.cpu.l2bus.snoop_fanout::samples        2754543                       # Request fanout histogram
system.cpu.l2bus.snoop_fanout::mean          0.000114                       # Request fanout histogram
system.cpu.l2bus.snoop_fanout::stdev         0.010659                       # Request fanout histogram
system.cpu.l2bus.snoop_fanout::underflows            0      0.00%      0.00% # Request fanout histogram
system.cpu.l2bus.snoop_fanout::0              2754230     99.99%     99.99% # Request fanout histogram
system.cpu.l2bus.snoop_fanout::1                  313      0.01%    100.00% # Request fanout histogram
system.cpu.l2bus.snoop_fanout::2                    0      0.00%    100.00% # Request fanout histogram
system.cpu.l2bus.snoop_fanout::3                    0      0.00%    100.00% # Request fanout histogram
system.cpu.l2bus.snoop_fanout::overflows            0      0.00%    100.00% # Request fanout histogram
system.cpu.l2bus.snoop_fanout::min_value            0                       # Request fanout histogram
system.cpu.l2bus.snoop_fanout::max_value            1                       # Request fanout histogram
system.cpu.l2bus.snoop_fanout::total          2754543                       # Request fanout histogram
system.cpu.l2bus.power_state.pwrStateResidencyTicks::UNDEFINED 16934578809993                       # Cumulative time (in ticks) in various power states
system.cpu.l2bus.reqLayer0.occupancy       3450476736                       # Layer occupancy (ticks)
system.cpu.l2bus.reqLayer0.utilization            8.1                       # Layer utilization (%)
system.cpu.l2bus.respLayer0.occupancy          103896                       # Layer occupancy (ticks)
system.cpu.l2bus.respLayer0.utilization           0.0                       # Layer utilization (%)
system.cpu.l2bus.respLayer1.occupancy      2588921154                       # Layer occupancy (ticks)
system.cpu.l2bus.respLayer1.utilization           6.1                       # Layer utilization (%)
system.cpu.l2cache.demand_hits::.switch_cpus.data      2427628                       # number of demand (read+write) hits
system.cpu.l2cache.demand_hits::total         2427628                       # number of demand (read+write) hits
system.cpu.l2cache.overall_hits::.switch_cpus.data      2427628                       # number of overall hits
system.cpu.l2cache.overall_hits::total        2427628                       # number of overall hits
system.cpu.l2cache.demand_misses::.cpu.inst            2                       # number of demand (read+write) misses
system.cpu.l2cache.demand_misses::.cpu.data            4                       # number of demand (read+write) misses
system.cpu.l2cache.demand_misses::.switch_cpus.inst          104                       # number of demand (read+write) misses
system.cpu.l2cache.demand_misses::.switch_cpus.data       161046                       # number of demand (read+write) misses
system.cpu.l2cache.demand_misses::total        161156                       # number of demand (read+write) misses
system.cpu.l2cache.overall_misses::.cpu.inst            2                       # number of overall misses
system.cpu.l2cache.overall_misses::.cpu.data            4                       # number of overall misses
system.cpu.l2cache.overall_misses::.switch_cpus.inst          104                       # number of overall misses
system.cpu.l2cache.overall_misses::.switch_cpus.data       161046                       # number of overall misses
system.cpu.l2cache.overall_misses::total       161156                       # number of overall misses
system.cpu.l2cache.demand_miss_latency::.switch_cpus.inst      8487171                       # number of demand (read+write) miss cycles
system.cpu.l2cache.demand_miss_latency::.switch_cpus.data  11797456734                       # number of demand (read+write) miss cycles
system.cpu.l2cache.demand_miss_latency::total  11805943905                       # number of demand (read+write) miss cycles
system.cpu.l2cache.overall_miss_latency::.switch_cpus.inst      8487171                       # number of overall miss cycles
system.cpu.l2cache.overall_miss_latency::.switch_cpus.data  11797456734                       # number of overall miss cycles
system.cpu.l2cache.overall_miss_latency::total  11805943905                       # number of overall miss cycles
system.cpu.l2cache.demand_accesses::.cpu.inst            2                       # number of demand (read+write) accesses
system.cpu.l2cache.demand_accesses::.cpu.data            4                       # number of demand (read+write) accesses
system.cpu.l2cache.demand_accesses::.switch_cpus.inst          104                       # number of demand (read+write) accesses
system.cpu.l2cache.demand_accesses::.switch_cpus.data      2588674                       # number of demand (read+write) accesses
system.cpu.l2cache.demand_accesses::total      2588784                       # number of demand (read+write) accesses
system.cpu.l2cache.overall_accesses::.cpu.inst            2                       # number of overall (read+write) accesses
system.cpu.l2cache.overall_accesses::.cpu.data            4                       # number of overall (read+write) accesses
system.cpu.l2cache.overall_accesses::.switch_cpus.inst          104                       # number of overall (read+write) accesses
system.cpu.l2cache.overall_accesses::.switch_cpus.data      2588674                       # number of overall (read+write) accesses
system.cpu.l2cache.overall_accesses::total      2588784                       # number of overall (read+write) accesses
system.cpu.l2cache.demand_miss_rate::.cpu.inst            1                       # miss rate for demand accesses
system.cpu.l2cache.demand_miss_rate::.cpu.data            1                       # miss rate for demand accesses
system.cpu.l2cache.demand_miss_rate::.switch_cpus.inst            1                       # miss rate for demand accesses
system.cpu.l2cache.demand_miss_rate::.switch_cpus.data     0.062212                       # miss rate for demand accesses
system.cpu.l2cache.demand_miss_rate::total     0.062252                       # miss rate for demand accesses
system.cpu.l2cache.overall_miss_rate::.cpu.inst            1                       # miss rate for overall accesses
system.cpu.l2cache.overall_miss_rate::.cpu.data            1                       # miss rate for overall accesses
system.cpu.l2cache.overall_miss_rate::.switch_cpus.inst            1                       # miss rate for overall accesses
system.cpu.l2cache.overall_miss_rate::.switch_cpus.data     0.062212                       # miss rate for overall accesses
system.cpu.l2cache.overall_miss_rate::total     0.062252                       # miss rate for overall accesses
system.cpu.l2cache.demand_avg_miss_latency::.switch_cpus.inst 81607.413462                       # average overall miss latency
system.cpu.l2cache.demand_avg_miss_latency::.switch_cpus.data 73255.198726                       # average overall miss latency
system.cpu.l2cache.demand_avg_miss_latency::total 73257.861358                       # average overall miss latency
system.cpu.l2cache.overall_avg_miss_latency::.switch_cpus.inst 81607.413462                       # average overall miss latency
system.cpu.l2cache.overall_avg_miss_latency::.switch_cpus.data 73255.198726                       # average overall miss latency
system.cpu.l2cache.overall_avg_miss_latency::total 73257.861358                       # average overall miss latency
system.cpu.l2cache.blocked_cycles::no_mshrs            0                       # number of cycles access was blocked
system.cpu.l2cache.blocked_cycles::no_targets            0                       # number of cycles access was blocked
system.cpu.l2cache.blocked::no_mshrs                0                       # number of cycles access was blocked
system.cpu.l2cache.blocked::no_targets              0                       # number of cycles access was blocked
system.cpu.l2cache.avg_blocked_cycles::no_mshrs          nan                       # average number of cycles each access was blocked
system.cpu.l2cache.avg_blocked_cycles::no_targets          nan                       # average number of cycles each access was blocked
system.cpu.l2cache.writebacks::.writebacks       157243                       # number of writebacks
system.cpu.l2cache.writebacks::total           157243                       # number of writebacks
system.cpu.l2cache.demand_mshr_misses::.switch_cpus.inst          104                       # number of demand (read+write) MSHR misses
system.cpu.l2cache.demand_mshr_misses::.switch_cpus.data       161046                       # number of demand (read+write) MSHR misses
system.cpu.l2cache.demand_mshr_misses::total       161150                       # number of demand (read+write) MSHR misses
system.cpu.l2cache.overall_mshr_misses::.switch_cpus.inst          104                       # number of overall MSHR misses
system.cpu.l2cache.overall_mshr_misses::.switch_cpus.data       161046                       # number of overall MSHR misses
system.cpu.l2cache.overall_mshr_misses::total       161150                       # number of overall MSHR misses
system.cpu.l2cache.demand_mshr_miss_latency::.switch_cpus.inst      8452539                       # number of demand (read+write) MSHR miss cycles
system.cpu.l2cache.demand_mshr_miss_latency::.switch_cpus.data  11743828416                       # number of demand (read+write) MSHR miss cycles
system.cpu.l2cache.demand_mshr_miss_latency::total  11752280955                       # number of demand (read+write) MSHR miss cycles
system.cpu.l2cache.overall_mshr_miss_latency::.switch_cpus.inst      8452539                       # number of overall MSHR miss cycles
system.cpu.l2cache.overall_mshr_miss_latency::.switch_cpus.data  11743828416                       # number of overall MSHR miss cycles
system.cpu.l2cache.overall_mshr_miss_latency::total  11752280955                       # number of overall MSHR miss cycles
system.cpu.l2cache.demand_mshr_miss_rate::.switch_cpus.inst            1                       # mshr miss rate for demand accesses
system.cpu.l2cache.demand_mshr_miss_rate::.switch_cpus.data     0.062212                       # mshr miss rate for demand accesses
system.cpu.l2cache.demand_mshr_miss_rate::total     0.062249                       # mshr miss rate for demand accesses
system.cpu.l2cache.overall_mshr_miss_rate::.switch_cpus.inst            1                       # mshr miss rate for overall accesses
system.cpu.l2cache.overall_mshr_miss_rate::.switch_cpus.data     0.062212                       # mshr miss rate for overall accesses
system.cpu.l2cache.overall_mshr_miss_rate::total     0.062249                       # mshr miss rate for overall accesses
system.cpu.l2cache.demand_avg_mshr_miss_latency::.switch_cpus.inst 81274.413462                       # average overall mshr miss latency
system.cpu.l2cache.demand_avg_mshr_miss_latency::.switch_cpus.data 72922.198726                       # average overall mshr miss latency
system.cpu.l2cache.demand_avg_mshr_miss_latency::total 72927.588923                       # average overall mshr miss latency
system.cpu.l2cache.overall_avg_mshr_miss_latency::.switch_cpus.inst 81274.413462                       # average overall mshr miss latency
system.cpu.l2cache.overall_avg_mshr_miss_latency::.switch_cpus.data 72922.198726                       # average overall mshr miss latency
system.cpu.l2cache.overall_avg_mshr_miss_latency::total 72927.588923                       # average overall mshr miss latency
system.cpu.l2cache.replacements                157243                       # number of replacements
system.cpu.l2cache.WritebackDirty_hits::.writebacks       808644                       # number of WritebackDirty hits
[...]
system.switch_cpus.commit.numCommittedDist::mean     3.067949                       # Number of insts commited each cycle
system.switch_cpus.commit.numCommittedDist::stdev     3.324743                       # Number of insts commited each cycle
system.switch_cpus.commit.numCommittedDist::underflows            0      0.00%      0.00% # Number of insts commited each cycle
system.switch_cpus.commit.numCommittedDist::0     44906035     36.15%     36.15% # Number of insts commited each cycle
system.switch_cpus.commit.numCommittedDist::1     20087205     16.17%     52.32% # Number of insts commited each cycle
system.switch_cpus.commit.numCommittedDist::2      6164645      4.96%     57.29% # Number of insts commited each cycle
system.switch_cpus.commit.numCommittedDist::3      6194581      4.99%     62.27% # Number of insts commited each cycle
system.switch_cpus.commit.numCommittedDist::4      7826970      6.30%     68.57% # Number of insts commited each cycle
system.switch_cpus.commit.numCommittedDist::5      2589993      2.09%     70.66% # Number of insts commited each cycle
system.switch_cpus.commit.numCommittedDist::6      2649646      2.13%     72.79% # Number of insts commited each cycle
system.switch_cpus.commit.numCommittedDist::7       441563      0.36%     73.15% # Number of insts commited each cycle
system.switch_cpus.commit.numCommittedDist::8     33355074     26.85%    100.00% # Number of insts commited each cycle
system.switch_cpus.commit.numCommittedDist::overflows            0      0.00%    100.00% # Number of insts commited each cycle
system.switch_cpus.commit.numCommittedDist::min_value            0                       # Number of insts commited each cycle
system.switch_cpus.commit.numCommittedDist::max_value            8                       # Number of insts commited each cycle
system.switch_cpus.commit.numCommittedDist::total    124215712                       # Number of insts commited each cycle
system.switch_cpus.commit.instsCommitted    250000000                       # Number of instructions committed
system.switch_cpus.commit.opsCommitted      381087492                       # Number of ops (including micro ops) committed
system.switch_cpus.commit.memRefs            75238979                       # Number of memory references committed
system.switch_cpus.commit.loads              61136860                       # Number of loads committed
system.switch_cpus.commit.amos                      0                       # Number of atomic instructions committed
system.switch_cpus.commit.membars                   0                       # Number of memory barriers committed
system.switch_cpus.commit.branches           24525974                       # Number of branches committed
system.switch_cpus.commit.vector                    0                       # Number of committed Vector instructions.
system.switch_cpus.commit.floating          213353596                       # Number of committed floating point instructions.
system.switch_cpus.commit.integer           230250642                       # Number of committed integer instructions.
system.switch_cpus.commit.functionCalls        283695                       # Number of function calls committed.
system.switch_cpus.commit.committedInstType_0::No_OpClass         1373      0.00%      0.00% # Class of committed instruction
system.switch_cpus.commit.committedInstType_0::IntAlu    185480714     48.67%     48.67% # Class of committed instruction
system.switch_cpus.commit.committedInstType_0::IntMult      1964777      0.52%     49.19% # Class of committed instruction
system.switch_cpus.commit.committedInstType_0::IntDiv            0      0.00%     49.19% # Class of committed instruction
system.switch_cpus.commit.committedInstType_0::FloatAdd      3405236      0.89%     50.08% # Class of committed instruction
system.switch_cpus.commit.committedInstType_0::FloatCmp            0      0.00%     50.08% # Class of committed instruction
system.switch_cpus.commit.committedInstType_0::FloatCvt            0      0.00%     50.08% # Class of committed instruction
system.switch_cpus.commit.committedInstType_0::FloatMult            0      0.00%     50.08% # Class of committed instruction
system.switch_cpus.commit.committedInstType_0::FloatMultAcc            0      0.00%     50.08% # Class of committed instruction
system.switch_cpus.commit.committedInstType_0::FloatDiv            0      0.00%     50.08% # Class of committed instruction
system.switch_cpus.commit.committedInstType_0::FloatMisc            0      0.00%     50.08% # Class of committed instruction
system.switch_cpus.commit.committedInstType_0::FloatSqrt            0      0.00%     50.08% # Class of committed instruction
system.switch_cpus.commit.committedInstType_0::SimdAdd            0      0.00%     50.08% # Class of committed instruction
system.switch_cpus.commit.committedInstType_0::SimdAddAcc            0      0.00%     50.08% # Class of committed instruction
system.switch_cpus.commit.committedInstType_0::SimdAlu      5134732      1.35%     51.43% # Class of committed instruction
system.switch_cpus.commit.committedInstType_0::SimdCmp            0      0.00%     51.43% # Class of committed instruction
system.switch_cpus.commit.committedInstType_0::SimdCvt            0      0.00%     51.43% # Class of committed instruction
system.switch_cpus.commit.committedInstType_0::SimdMisc      1985865      0.52%     51.95% # Class of committed instruction
system.switch_cpus.commit.committedInstType_0::SimdMult            0      0.00%     51.95% # Class of committed instruction
system.switch_cpus.commit.committedInstType_0::SimdMultAcc            0      0.00%     51.95% # Class of committed instruction
system.switch_cpus.commit.committedInstType_0::SimdShift            0      0.00%     51.95% # Class of committed instruction
system.switch_cpus.commit.committedInstType_0::SimdShiftAcc            0      0.00%     51.95% # Class of committed instruction
system.switch_cpus.commit.committedInstType_0::SimdDiv            0      0.00%     51.95% # Class of committed instruction
system.switch_cpus.commit.committedInstType_0::SimdSqrt            0      0.00%     51.95% # Class of committed instruction
system.switch_cpus.commit.committedInstType_0::SimdFloatAdd     42233583     11.08%     63.03% # Class of committed instruction
system.switch_cpus.commit.committedInstType_0::SimdFloatAlu            0      0.00%     63.03% # Class of committed instruction
system.switch_cpus.commit.committedInstType_0::SimdFloatCmp            0      0.00%     63.03% # Class of committed instruction
system.switch_cpus.commit.committedInstType_0::SimdFloatCvt     12178075      3.20%     66.23% # Class of committed instruction
system.switch_cpus.commit.committedInstType_0::SimdFloatDiv      2280196      0.60%     66.83% # Class of committed instruction
system.switch_cpus.commit.committedInstType_0::SimdFloatMisc            0      0.00%     66.83% # Class of committed instruction
system.switch_cpus.commit.committedInstType_0::SimdFloatMult     49220558     12.92%     79.74% # Class of committed instruction
system.switch_cpus.commit.committedInstType_0::SimdFloatMultAcc            0      0.00%     79.74% # Class of committed instruction
system.switch_cpus.commit.committedInstType_0::SimdFloatSqrt      1963404      0.52%     80.26% # Class of committed instruction
system.switch_cpus.commit.committedInstType_0::SimdReduceAdd            0      0.00%     80.26% # Class of committed instruction
system.switch_cpus.commit.committedInstType_0::SimdReduceAlu            0      0.00%     80.26% # Class of committed instruction
system.switch_cpus.commit.committedInstType_0::SimdReduceCmp            0      0.00%     80.26% # Class of committed instruction
system.switch_cpus.commit.committedInstType_0::SimdFloatReduceAdd            0      0.00%     80.26% # Class of committed instruction
system.switch_cpus.commit.committedInstType_0::SimdFloatReduceCmp            0      0.00%     80.26% # Class of committed instruction
system.switch_cpus.commit.committedInstType_0::SimdAes            0      0.00%     80.26% # Class of committed instruction
system.switch_cpus.commit.committedInstType_0::SimdAesMix            0      0.00%     80.26% # Class of committed instruction
system.switch_cpus.commit.committedInstType_0::SimdSha1Hash            0      0.00%     80.26% # Class of committed instruction
system.switch_cpus.commit.committedInstType_0::SimdSha1Hash2            0      0.00%     80.26% # Class of committed instruction
system.switch_cpus.commit.committedInstType_0::SimdSha256Hash            0      0.00%     80.26% # Class of committed instruction
system.switch_cpus.commit.committedInstType_0::SimdSha256Hash2            0      0.00%     80.26% # Class of committed instruction
system.switch_cpus.commit.committedInstType_0::SimdShaSigma2            0      0.00%     80.26% # Class of committed instruction
system.switch_cpus.commit.committedInstType_0::SimdShaSigma3            0      0.00%     80.26% # Class of committed instruction
system.switch_cpus.commit.committedInstType_0::SimdPredAlu            0      0.00%     80.26% # Class of committed instruction
system.switch_cpus.commit.committedInstType_0::MemRead     10730876      2.82%     83.07% # Class of committed instruction
system.switch_cpus.commit.committedInstType_0::MemWrite      3975849      1.04%     84.12% # Class of committed instruction
system.switch_cpus.commit.committedInstType_0::FloatMemRead     50405984     13.23%     97.34% # Class of committed instruction
system.switch_cpus.commit.committedInstType_0::FloatMemWrite     10126270      2.66%    100.00% # Class of committed instruction
system.switch_cpus.commit.committedInstType_0::IprAccess            0      0.00%    100.00% # Class of committed instruction
system.switch_cpus.commit.committedInstType_0::InstPrefetch            0      0.00%    100.00% # Class of committed instruction
system.switch_cpus.commit.committedInstType_0::total    381087492                       # Class of committed instruction
system.switch_cpus.commit.commitEligibleSamples     33355074                       # number cycles where commit BW limit reached
system.switch_cpus.decode.idleCycles         10772683                       # Number of cycles decode is idle
system.switch_cpus.decode.blockedCycles      62839290                       # Number of cycles decode is blocked
system.switch_cpus.decode.runCycles          33716822                       # Number of cycles decode is running
system.switch_cpus.decode.unblockCycles      20538830                       # Number of cycles decode is unblocking
system.switch_cpus.decode.squashCycles         275636                       # Number of cycles decode is squashing
system.switch_cpus.decode.branchResolved     11545752                       # Number of times decode resolved a  branch
system.switch_cpus.decode.branchMispred            40                       # Number of times decode detected a branch misprediction
system.switch_cpus.decode.decodedInsts      416515143                       # Number of instructions handled by decode
system.switch_cpus.decode.squashedInsts           164                       # Number of squashed instructions handled by decode
system.switch_cpus.dtb.rdAccesses            63786692                       # TLB accesses on read requests
system.switch_cpus.dtb.wrAccesses            17190505                       # TLB accesses on write requests
system.switch_cpus.dtb.rdMisses                 73211                       # TLB misses on read requests
system.switch_cpus.dtb.wrMisses                     0                       # TLB misses on write requests
system.switch_cpus.dtb.walker.power_state.pwrStateResidencyTicks::UNDEFINED 16934578809993                       # Cumulative time (in ticks) in various power states
system.switch_cpus.fetch.icacheStallCycles       274028                       # Number of cycles fetch is stalled on an Icache miss
system.switch_cpus.fetch.insts              276473350                       # Number of instructions fetch has processed
system.switch_cpus.fetch.branches            26939682                       # Number of branches that fetch encountered
system.switch_cpus.fetch.predictedBranches     12656006                       # Number of branches that fetch has predicted taken
system.switch_cpus.fetch.cycles             127593566                       # Number of cycles fetch has run and was not squashing or blocked
system.switch_cpus.fetch.squashCycles          551352                       # Number of cycles fetch has spent squashing
system.switch_cpus.fetch.cacheLines          31398660                       # Number of cache lines fetched
system.switch_cpus.fetch.icacheSquashes            58                       # Number of outstanding Icache misses that were squashed
system.switch_cpus.fetch.nisnDist::samples    128143270                       # Number of instructions fetched each cycle (Total)
system.switch_cpus.fetch.nisnDist::mean      3.297132                       # Number of instructions fetched each cycle (Total)
system.switch_cpus.fetch.nisnDist::stdev     3.460489                       # Number of instructions fetched each cycle (Total)
system.switch_cpus.fetch.nisnDist::underflows            0      0.00%      0.00% # Number of instructions fetched each cycle (Total)
system.switch_cpus.fetch.nisnDist::0         54932480     42.87%     42.87% # Number of instructions fetched each cycle (Total)
system.switch_cpus.fetch.nisnDist::1          6127333      4.78%     47.65% # Number of instructions fetched each cycle (Total)
system.switch_cpus.fetch.nisnDist::2          6459673      5.04%     52.69% # Number of instructions fetched each cycle (Total)
system.switch_cpus.fetch.nisnDist::3          5649143      4.41%     57.10% # Number of instructions fetched each cycle (Total)
system.switch_cpus.fetch.nisnDist::4          7408012      5.78%     62.88% # Number of instructions fetched each cycle (Total)
system.switch_cpus.fetch.nisnDist::5          5303264      4.14%     67.02% # Number of instructions fetched each cycle (Total)
system.switch_cpus.fetch.nisnDist::6          2478574      1.93%     68.95% # Number of instructions fetched each cycle (Total)
system.switch_cpus.fetch.nisnDist::7          2786948      2.17%     71.13% # Number of instructions fetched each cycle (Total)
system.switch_cpus.fetch.nisnDist::8         36997843     28.87%    100.00% # Number of instructions fetched each cycle (Total)
system.switch_cpus.fetch.nisnDist::overflows            0      0.00%    100.00% # Number of instructions fetched each cycle (Total)
system.switch_cpus.fetch.nisnDist::min_value            0                       # Number of instructions fetched each cycle (Total)
system.switch_cpus.fetch.nisnDist::max_value            8                       # Number of instructions fetched each cycle (Total)
system.switch_cpus.fetch.nisnDist::total    128143270                       # Number of instructions fetched each cycle (Total)
system.switch_cpus.fetch.branchRate          0.210210                       # Number of branch fetches per cycle
system.switch_cpus.fetch.rate                2.157318                       # Number of inst fetches per cycle
system.switch_cpus.itb.rdAccesses                   0                       # TLB accesses on read requests
system.switch_cpus.itb.wrAccesses            31398660                       # TLB accesses on write requests
system.switch_cpus.itb.rdMisses                     0                       # TLB misses on read requests
system.switch_cpus.itb.wrMisses                    10                       # TLB misses on write requests
system.switch_cpus.itb.walker.power_state.pwrStateResidencyTicks::UNDEFINED 16934578809993                       # Cumulative time (in ticks) in various power states
system.switch_cpus.lsq0.forwLoads              491326                       # Number of loads that had data forwarded from stores
system.switch_cpus.lsq0.squashedLoads         3695809                       # Number of loads squashed
system.switch_cpus.lsq0.ignoredResponses            5                       # Number of memory responses ignored because the instruction is squashed
system.switch_cpus.lsq0.memOrderViolation          617                       # Number of memory ordering violations
system.switch_cpus.lsq0.squashedStores        3666504                       # Number of stores squashed
system.switch_cpus.lsq0.rescheduledLoads            0                       # Number of loads that were rescheduled
system.switch_cpus.lsq0.blockedByCache              1                       # Number of times an access to memory failed due to the cache being blocked
system.switch_cpus.power_state.pwrStateResidencyTicks::OFF  42675975639                       # Cumulative time (in ticks) in various power states
system.switch_cpus.rename.squashCycles         275636                       # Number of cycles rename is squashing
system.switch_cpus.rename.idleCycles         17680592                       # Number of cycles rename is idle
system.switch_cpus.rename.blockCycles        34627372                       # Number of cycles rename is blocking
system.switch_cpus.rename.serializeStallCycles            0                       # count of cycles rename stalledfor serializing inst
system.switch_cpus.rename.runCycles          47125873                       # Number of cycles rename is running
system.switch_cpus.rename.unblockCycles      28433788                       # Number of cycles rename is unblocking
system.switch_cpus.rename.renamedInsts      414681466                       # Number of instructions processed by rename
system.switch_cpus.rename.ROBFullEvents         50683                       # Number of times rename has blocked due to ROB full
system.switch_cpus.rename.IQFullEvents       20332984                       # Number of times rename has blocked due to IQ full
system.switch_cpus.rename.LQFullEvents        2779089                       # Number of times rename has blocked due to LQ full
system.switch_cpus.rename.SQFullEvents            115                       # Number of times rename has blocked due to SQ full
system.switch_cpus.rename.renamedOperands    435500632                       # Number of destination operands rename has renamed
system.switch_cpus.rename.lookups          1084539675                       # Number of register rename lookups that rename has made
system.switch_cpus.rename.intLookups        343852319                       # Number of integer rename lookups
system.switch_cpus.rename.fpLookups         429356119                       # Number of floating rename lookups
system.switch_cpus.rename.committedMaps     401106687                       # Number of HB maps that are committed
system.switch_cpus.rename.undoneMaps         34393807                       # Number of HB maps that are undone due to squashing
system.switch_cpus.rename.serializing               0                       # count of serializing insts renamed
system.switch_cpus.rename.tempSerializing            0                       # count of temporary serializing insts renamed
system.switch_cpus.rename.skidInsts          84396555                       # count of insts added to the skid buffer
system.switch_cpus.rob.reads                502429649                       # The number of ROB reads
system.switch_cpus.rob.writes               827065740                       # The number of ROB writes
system.switch_cpus.thread0.numInsts         250000000                       # Number of Instructions committed
system.switch_cpus.thread0.numOps           381087492                       # Number of Ops committed
system.switch_cpus.thread0.numMemRefs               0                       # Number of Memory References
system.voltage_domain.voltage                       1                       # Voltage in Volts

---------- End Simulation Statistics   ----------
