Command line:
./runscript_pride.sh mix7 RFM2.BR2.4C 4 2017 --rh_defense --rh_mitigation=RFM --rh_rfm_per_trefi=2 --rh_rfm_blast_radius=2 --rh_rfm_maxacts_per_trefi=79
Global frequency set at 1000000000000 ticks per second
RFM details - rfm_act_threshold: 39, blast_radius: 2, delay_per_rfm: 175000 ps. sample_rate: 0.025000
RH Defense config: RFM, Bus Delay: 0, rfms_per_trefi: 2, rfm_act_threshold: 39, blast_radius: 2,rfm_delay_per_act: 45000 ps.
DRAM config: RowsPerBank: 65536, BanksPerRank: 32, RanksPerChannel: 1
warn: Sockets disabled, not accepting gdb connections
warn: CoherentXBar system.cpu0.mmucache.mmubus has no snooping ports attached!
warn: CoherentXBar system.cpu1.mmucache.mmubus has no snooping ports attached!
warn: CoherentXBar system.cpu2.mmucache.mmubus has no snooping ports attached!
warn: CoherentXBar system.cpu3.mmucache.mmubus has no snooping ports attached!
warn: Checkpoints for file descriptors currently do not work.
warn: Checkpoints for file descriptors currently do not work.
warn: Checkpoints for file descriptors currently do not work.
warn: Checkpoints for file descriptors currently do not work.
gem5 Simulator System.  http://gem5.org
gem5 is copyrighted software; use the --copyright option for details.

gem5 version 20.1.0.5
gem5 compiled Jul 12 2024 12:42:38
gem5 started Aug  1 2024 16:52:13
gem5 executing on a07dda8b130c, pid 250314
command line: /home/user/PrIDE/performance/gem5/build/X86/gem5.opt --outdir=/home/user/PrIDE/performance/gem5/stats/pride_multiprogram_16GBmem_250Mn.SPEC2017.C4/RFM2.BR2.4C/mix7 /home/user/PrIDE/performance/gem5/configs/example/se_rq_spec_config_multicore.py --redirects /lib64=/home/utils/gcc-6.2.0/lib64 --benchmark=mix7 --benchmark_stdout=/home/user/PrIDE/performance/gem5/stats/pride_multiprogram_16GBmem_250Mn.SPEC2017.C4/RFM2.BR2.4C/mix7/mix7.out --benchmark_stderr=/home/user/PrIDE/performance/gem5/stats/pride_multiprogram_16GBmem_250Mn.SPEC2017.C4/RFM2.BR2.4C/mix7/mix7.err --spec-version=2017 --rh_defense --rh_mitigation=RFM --rh_rfm_per_trefi=2 --rh_rfm_blast_radius=2 --rh_rfm_maxacts_per_trefi=79 --num-cpus=4 --mem-size=16GB --mem-type=DDR5_2400_32x4 --mem-ranks=1 --mem-channels=1 --checkpoint-dir=/home/user/PrIDE/performance/gem5/cpts-DDR5/multiprogram_16GBmem_25Bn.SPEC2017.C4/mix7-1-ref-x86 --checkpoint-restore=25000000000 --at-instruction --cpu-type DerivO3CPU --caches --l2cache --l1d_size=32kB --l1i_size=32kB --l2_size=256kB --l3_size=4MB --l1d_assoc=8 --l1i_assoc=8 --l2_assoc=16 --l3_assoc=16 --cpu-clock=3GHz --sys-clock=3GHz --maxinsts=250000000 --prog-interval=300Hz

info: Standard input is not a terminal, disabling listeners.
Benchmark- 0   povray
Selected benchmark
--> povray
CMD: ['/opt/spec2017/benchspec/CPU/511.povray_r/run/run_base_refrate_gem5_se-m64.0000/povray_r_base.gem5_se-m64', '/opt/spec2017/benchspec/CPU/511.povray_r/run/run_base_refrate_gem5_se-m64.0000/SPEC-benchmark-ref.ini']
CWD: /opt/spec2017/benchspec/CPU/511.povray_r/run/run_base_refrate_gem5_se-m64.0000/
Process stdout file: /home/user/PrIDE/performance/gem5/stats/pride_multiprogram_16GBmem_250Mn.SPEC2017.C4/RFM2.BR2.4C/mix7/mix7.out_0
Process stderr file: /home/user/PrIDE/performance/gem5/stats/pride_multiprogram_16GBmem_250Mn.SPEC2017.C4/RFM2.BR2.4C/mix7/mix7.err_0
Benchmark- 1   roms
Selected benchmark
--> roms
CMD: ['/opt/spec2017/benchspec/CPU/554.roms_r/run/run_base_refrate_gem5_se-m64.0000/roms_r_base.gem5_se-m64']
CWD: /opt/spec2017/benchspec/CPU/554.roms_r/run/run_base_refrate_gem5_se-m64.0000/
Process stdout file: /home/user/PrIDE/performance/gem5/stats/pride_multiprogram_16GBmem_250Mn.SPEC2017.C4/RFM2.BR2.4C/mix7/mix7.out_1
Process stderr file: /home/user/PrIDE/performance/gem5/stats/pride_multiprogram_16GBmem_250Mn.SPEC2017.C4/RFM2.BR2.4C/mix7/mix7.err_1
Benchmark- 2   nab
Selected benchmark
--> nab
CMD: ['/opt/spec2017/benchspec/CPU/544.nab_r/run/run_base_refrate_gem5_se-m64.0000/nab_r_base.gem5_se-m64', '1am0', '1122214447', '122']
CWD: /opt/spec2017/benchspec/CPU/544.nab_r/run/run_base_refrate_gem5_se-m64.0000/
Process stdout file: /home/user/PrIDE/performance/gem5/stats/pride_multiprogram_16GBmem_250Mn.SPEC2017.C4/RFM2.BR2.4C/mix7/mix7.out_2
Process stderr file: /home/user/PrIDE/performance/gem5/stats/pride_multiprogram_16GBmem_250Mn.SPEC2017.C4/RFM2.BR2.4C/mix7/mix7.err_2
Benchmark- 3   bwaves
Selected benchmark
--> bwaves
CMD: ['/opt/spec2017/benchspec/CPU/503.bwaves_r/run/run_base_refrate_gem5_se-m64.0000/bwaves_r_base.gem5_se-m64', '/opt/spec2017/benchspec/CPU/503.bwaves_r/run/run_base_refrate_gem5_se-m64.0000/bwaves_1']
CWD: /opt/spec2017/benchspec/CPU/503.bwaves_r/run/run_base_refrate_gem5_se-m64.0000/
Process stdout file: /home/user/PrIDE/performance/gem5/stats/pride_multiprogram_16GBmem_250Mn.SPEC2017.C4/RFM2.BR2.4C/mix7/mix7.out_3
Process stderr file: /home/user/PrIDE/performance/gem5/stats/pride_multiprogram_16GBmem_250Mn.SPEC2017.C4/RFM2.BR2.4C/mix7/mix7.err_3
Workload-0: 
['/opt/spec2017/benchspec/CPU/511.povray_r/run/run_base_refrate_gem5_se-m64.0000/povray_r_base.gem5_se-m64', '/opt/spec2017/benchspec/CPU/511.povray_r/run/run_base_refrate_gem5_se-m64.0000/SPEC-benchmark-ref.ini']
Workload-1: 
['/opt/spec2017/benchspec/CPU/554.roms_r/run/run_base_refrate_gem5_se-m64.0000/roms_r_base.gem5_se-m64']
Workload-2: 
['/opt/spec2017/benchspec/CPU/544.nab_r/run/run_base_refrate_gem5_se-m64.0000/nab_r_base.gem5_se-m64', '1am0', '1122214447', '122']
Workload-3: 
['/opt/spec2017/benchspec/CPU/503.bwaves_r/run/run_base_refrate_gem5_se-m64.0000/bwaves_r_base.gem5_se-m64', '/opt/spec2017/benchspec/CPU/503.bwaves_r/run/run_base_refrate_gem5_se-m64.0000/bwaves_1']
defense_enable:  True  detector:  MG  mitigation:  RFM  threshold:  800
mg_entries:  1700
rfm_maxacts_per_trefi:  79 rfm_per_trefi:  2 rfm_blast_radius:  2
Switch at curTick count:10000
warn: membus.master is deprecated. `master` is now called `mem_side_ports`
warn: No dot file generated. Please install pydot to generate the dot file and pdf.
info: Entering event queue @ 15651257118291.  Starting simulation...
info: Entering event queue @ 15651257128291.  Starting simulation...
warn: PowerState: Already in the requested power state, request ignored
Switched CPUS @ tick 15651257128291
switching cpus
**** REAL SIMULATION ****
info: Entering event queue @ 15651257128947.  Starting simulation...
15654590451624: Event_285: system.switch_cpus3 progress event, total committed:39501659, progress insts committed: 39501659, IPC: 03.94622
15654590451624: Event_284: system.switch_cpus2 progress event, total committed:26541999, progress insts committed: 26541999, IPC: 02.65155
15654590451624: Event_283: system.switch_cpus1 progress event, total committed:8849036, progress insts committed: 8849036, IPC: 0.884019
15654590451624: Event_282: system.switch_cpus0 progress event, total committed:45175117, progress insts committed: 45175117, IPC: 04.51299
15657923784957: Event_282: system.switch_cpus0 progress event, total committed:89272336, progress insts committed: 44097219, IPC: 04.40531
15657923784957: Event_283: system.switch_cpus1 progress event, total committed:17737130, progress insts committed: 8888094, IPC: 0.887921
15657923784957: Event_284: system.switch_cpus2 progress event, total committed:55171201, progress insts committed: 28629202, IPC: 02.86006
15657923784957: Event_285: system.switch_cpus3 progress event, total committed:78979350, progress insts committed: 39477691, IPC: 03.94382
15661257118290: Event_285: system.switch_cpus3 progress event, total committed:118928777, progress insts committed: 39949427, IPC: 03.99095
15661257118290: Event_284: system.switch_cpus2 progress event, total committed:83671682, progress insts committed: 28500481, IPC: 002.8472
15661257118290: Event_283: system.switch_cpus1 progress event, total committed:26746901, progress insts committed: 9009771, IPC: 0.900076
15661257118290: Event_282: system.switch_cpus0 progress event, total committed:134286819, progress insts committed: 45014483, IPC: 04.49695
15664590451623: Event_282: system.switch_cpus0 progress event, total committed:179406213, progress insts committed: 45119394, IPC: 04.50743
15664590451623: Event_283: system.switch_cpus1 progress event, total committed:37084995, progress insts committed: 10338094, IPC: 01.03278
15664590451623: Event_284: system.switch_cpus2 progress event, total committed:108922054, progress insts committed: 25250372, IPC: 02.52251
15664590451623: Event_285: system.switch_cpus3 progress event, total committed:156482599, progress insts committed: 37553822, IPC: 03.75163
15667923784956: Event_285: system.switch_cpus3 progress event, total committed:186882356, progress insts committed: 30399757, IPC: 03.03694
15667923784956: Event_284: system.switch_cpus2 progress event, total committed:132377785, progress insts committed: 23455731, IPC: 02.34323
15667923784956: Event_283: system.switch_cpus1 progress event, total committed:46057524, progress insts committed: 8972529, IPC: 0.896356
15667923784956: Event_282: system.switch_cpus0 progress event, total committed:224314356, progress insts committed: 44908143, IPC: 04.48632
15671257118289: Event_282: system.switch_cpus0 progress event, total committed:269473580, progress insts committed: 45159224, IPC: 04.51141
15671257118289: Event_283: system.switch_cpus1 progress event, total committed:57697277, progress insts committed: 11639753, IPC: 01.16281
15671257118289: Event_284: system.switch_cpus2 progress event, total committed:157418691, progress insts committed: 25040906, IPC: 02.50159
15671257118289: Event_285: system.switch_cpus3 progress event, total committed:228404905, progress insts committed: 41522549, IPC: 004.1481
15674590451622: Event_285: system.switch_cpus3 progress event, total committed:267448427, progress insts committed: 39043522, IPC: 03.90045
15674590451622: Event_284: system.switch_cpus2 progress event, total committed:185147097, progress insts committed: 27728406, IPC: 02.77007
15674590451622: Event_283: system.switch_cpus1 progress event, total committed:82435754, progress insts committed: 24738477, IPC: 02.47137
15674590451622: Event_282: system.switch_cpus0 progress event, total committed:314700266, progress insts committed: 45226686, IPC: 04.51815
15677923784955: Event_282: system.switch_cpus0 progress event, total committed:359937058, progress insts committed: 45236792, IPC: 04.51916
15677923784955: Event_283: system.switch_cpus1 progress event, total committed:107464289, progress insts committed: 25028535, IPC: 02.50035
15677923784955: Event_284: system.switch_cpus2 progress event, total committed:213298292, progress insts committed: 28151195, IPC: 002.8123
15677923784955: Event_285: system.switch_cpus3 progress event, total committed:307851257, progress insts committed: 40402830, IPC: 04.03624
15681257118288: Event_285: system.switch_cpus3 progress event, total committed:348413704, progress insts committed: 40562447, IPC: 04.05219
15681257118288: Event_284: system.switch_cpus2 progress event, total committed:240990196, progress insts committed: 27691904, IPC: 02.76642
15681257118288: Event_283: system.switch_cpus1 progress event, total committed:132265213, progress insts committed: 24800924, IPC: 02.47761
15681257118288: Event_282: system.switch_cpus0 progress event, total committed:405278987, progress insts committed: 45341929, IPC: 04.52966
Exiting @ tick 15684568930800 because a thread reached the max instruction count
