
---------- Begin Simulation Statistics ----------
final_tick                               15760114783326                       # Number of ticks from beginning of simulation (restored from checkpoints and never reset)
host_inst_rate                                 179133                       # Simulator instruction rate (inst/s)
host_mem_usage                               17618616                       # Number of bytes of host memory used
host_op_rate                                   295725                       # Simulator op (including micro ops) rate (op/s)
host_seconds                                  5581.37                       # Real time elapsed on the host
host_tick_rate                               19503751                       # Simulator tick rate (ticks/s)
sim_freq                                 1000000000000                       # Frequency of simulated ticks
sim_insts                                   999807728                       # Number of instructions simulated
sim_ops                                    1650549751                       # Number of ops (including micro ops) simulated
sim_seconds                                  0.108858                       # Number of seconds simulated
sim_ticks                                108857705994                       # Number of ticks simulated
system.cpu0.Branches                                1                       # Number of branches fetched
system.cpu0.committedInsts                         14                       # Number of instructions committed
system.cpu0.committedOps                           23                       # Number of ops (including micro ops) committed
system.cpu0.idle_fraction                           0                       # Percentage of idle cycles
system.cpu0.l2bus.snoop_filter.hit_multi_requests            3                       # Number of requests hitting in the snoop filter with multiple (>1) holders of the requested data.
system.cpu0.l2bus.snoop_filter.hit_multi_snoops            0                       # Number of snoops hitting in the snoop filter with multiple (>1) holders of the requested data.
system.cpu0.l2bus.snoop_filter.hit_single_requests      2574785                       # Number of requests hitting in the snoop filter with a single holder of the requested data.
system.cpu0.l2bus.snoop_filter.hit_single_snoops         6233                       # Number of snoops hitting in the snoop filter with a single holder of the requested data.
system.cpu0.l2bus.snoop_filter.tot_requests      5019392                       # Total number of requests made to the snoop filter.
system.cpu0.l2bus.snoop_filter.tot_snoops         6233                       # Total number of snoops made to the snoop filter.
system.cpu0.mmucache.mmubus.snoop_filter.hit_multi_requests            0                       # Number of requests hitting in the snoop filter with multiple (>1) holders of the requested data.
system.cpu0.mmucache.mmubus.snoop_filter.hit_multi_snoops            0                       # Number of snoops hitting in the snoop filter with multiple (>1) holders of the requested data.
system.cpu0.mmucache.mmubus.snoop_filter.hit_single_requests            0                       # Number of requests hitting in the snoop filter with a single holder of the requested data.
system.cpu0.mmucache.mmubus.snoop_filter.hit_single_snoops            0                       # Number of snoops hitting in the snoop filter with a single holder of the requested data.
system.cpu0.mmucache.mmubus.snoop_filter.tot_requests            0                       # Total number of requests made to the snoop filter.
system.cpu0.mmucache.mmubus.snoop_filter.tot_snoops            0                       # Total number of snoops made to the snoop filter.
system.cpu0.not_idle_fraction                       1                       # Percentage of non-idle cycles
system.cpu0.numCycles                              30                       # number of cpu cycles simulated
system.cpu0.numWorkItemsCompleted                   0                       # number of work items this cpu completed
system.cpu0.numWorkItemsStarted                     0                       # number of work items this cpu started
system.cpu0.num_busy_cycles                        30                       # Number of busy cycles
system.cpu0.num_cc_register_reads                   5                       # number of times the CC registers were read
system.cpu0.num_cc_register_writes                  8                       # number of times the CC registers were written
system.cpu0.num_conditional_control_insts            1                       # number of instructions that are conditional controls
system.cpu0.num_fp_alu_accesses                    12                       # Number of float alu accesses
system.cpu0.num_fp_insts                           12                       # number of float instructions
system.cpu0.num_fp_register_reads                  21                       # number of times the floating registers were read
system.cpu0.num_fp_register_writes                 11                       # number of times the floating registers were written
system.cpu0.num_func_calls                          0                       # number of times a function call or return occured
system.cpu0.num_idle_cycles                         0                       # Number of idle cycles
system.cpu0.num_int_alu_accesses                   16                       # Number of integer alu accesses
system.cpu0.num_int_insts                          16                       # number of integer instructions
system.cpu0.num_int_register_reads                 33                       # number of times the integer registers were read
system.cpu0.num_int_register_writes                10                       # number of times the integer registers were written
system.cpu0.num_load_insts                          6                       # Number of load instructions
system.cpu0.num_mem_refs                            7                       # number of memory refs
system.cpu0.num_store_insts                         1                       # Number of store instructions
system.cpu0.num_vec_alu_accesses                    0                       # Number of vector alu accesses
system.cpu0.num_vec_insts                           0                       # number of vector instructions
system.cpu0.num_vec_register_reads                  0                       # number of times the vector registers were read
system.cpu0.num_vec_register_writes                 0                       # number of times the vector registers were written
system.cpu0.op_class::No_OpClass                    0      0.00%      0.00% # Class of executed instruction
system.cpu0.op_class::IntAlu                       10     43.48%     43.48% # Class of executed instruction
system.cpu0.op_class::IntMult                       0      0.00%     43.48% # Class of executed instruction
system.cpu0.op_class::IntDiv                        0      0.00%     43.48% # Class of executed instruction
system.cpu0.op_class::FloatAdd                      0      0.00%     43.48% # Class of executed instruction
system.cpu0.op_class::FloatCmp                      0      0.00%     43.48% # Class of executed instruction
system.cpu0.op_class::FloatCvt                      0      0.00%     43.48% # Class of executed instruction
system.cpu0.op_class::FloatMult                     0      0.00%     43.48% # Class of executed instruction
system.cpu0.op_class::FloatMultAcc                  0      0.00%     43.48% # Class of executed instruction
system.cpu0.op_class::FloatDiv                      0      0.00%     43.48% # Class of executed instruction
system.cpu0.op_class::FloatMisc                     0      0.00%     43.48% # Class of executed instruction
system.cpu0.op_class::FloatSqrt                     0      0.00%     43.48% # Class of executed instruction
system.cpu0.op_class::SimdAdd                       0      0.00%     43.48% # Class of executed instruction
system.cpu0.op_class::SimdAddAcc                    0      0.00%     43.48% # Class of executed instruction
system.cpu0.op_class::SimdAlu                       0      0.00%     43.48% # Class of executed instruction
system.cpu0.op_class::SimdCmp                       0      0.00%     43.48% # Class of executed instruction
system.cpu0.op_class::SimdCvt                       0      0.00%     43.48% # Class of executed instruction
system.cpu0.op_class::SimdMisc                      0      0.00%     43.48% # Class of executed instruction
system.cpu0.op_class::SimdMult                      0      0.00%     43.48% # Class of executed instruction
system.cpu0.op_class::SimdMultAcc                   0      0.00%     43.48% # Class of executed instruction
system.cpu0.op_class::SimdShift                     0      0.00%     43.48% # Class of executed instruction
system.cpu0.op_class::SimdShiftAcc                  0      0.00%     43.48% # Class of executed instruction
system.cpu0.op_class::SimdDiv                       0      0.00%     43.48% # Class of executed instruction
system.cpu0.op_class::SimdSqrt                      0      0.00%     43.48% # Class of executed instruction
system.cpu0.op_class::SimdFloatAdd                  4     17.39%     60.87% # Class of executed instruction
system.cpu0.op_class::SimdFloatAlu                  0      0.00%     60.87% # Class of executed instruction
system.cpu0.op_class::SimdFloatCmp                  0      0.00%     60.87% # Class of executed instruction
system.cpu0.op_class::SimdFloatCvt                  0      0.00%     60.87% # Class of executed instruction
system.cpu0.op_class::SimdFloatDiv                  0      0.00%     60.87% # Class of executed instruction
system.cpu0.op_class::SimdFloatMisc                 0      0.00%     60.87% # Class of executed instruction
system.cpu0.op_class::SimdFloatMult                 2      8.70%     69.57% # Class of executed instruction
system.cpu0.op_class::SimdFloatMultAcc              0      0.00%     69.57% # Class of executed instruction
system.cpu0.op_class::SimdFloatSqrt                 0      0.00%     69.57% # Class of executed instruction
system.cpu0.op_class::SimdReduceAdd                 0      0.00%     69.57% # Class of executed instruction
system.cpu0.op_class::SimdReduceAlu                 0      0.00%     69.57% # Class of executed instruction
system.cpu0.op_class::SimdReduceCmp                 0      0.00%     69.57% # Class of executed instruction
system.cpu0.op_class::SimdFloatReduceAdd            0      0.00%     69.57% # Class of executed instruction
system.cpu0.op_class::SimdFloatReduceCmp            0      0.00%     69.57% # Class of executed instruction
system.cpu0.op_class::SimdAes                       0      0.00%     69.57% # Class of executed instruction
system.cpu0.op_class::SimdAesMix                    0      0.00%     69.57% # Class of executed instruction
system.cpu0.op_class::SimdSha1Hash                  0      0.00%     69.57% # Class of executed instruction
system.cpu0.op_class::SimdSha1Hash2                 0      0.00%     69.57% # Class of executed instruction
system.cpu0.op_class::SimdSha256Hash                0      0.00%     69.57% # Class of executed instruction
system.cpu0.op_class::SimdSha256Hash2               0      0.00%     69.57% # Class of executed instruction
system.cpu0.op_class::SimdShaSigma2                 0      0.00%     69.57% # Class of executed instruction
system.cpu0.op_class::SimdShaSigma3                 0      0.00%     69.57% # Class of executed instruction
system.cpu0.op_class::SimdPredAlu                   0      0.00%     69.57% # Class of executed instruction
system.cpu0.op_class::MemRead                       2      8.70%     78.26% # Class of executed instruction
system.cpu0.op_class::MemWrite                      0      0.00%     78.26% # Class of executed instruction
system.cpu0.op_class::FloatMemRead                  4     17.39%     95.65% # Class of executed instruction
system.cpu0.op_class::FloatMemWrite                 1      4.35%    100.00% # Class of executed instruction
system.cpu0.op_class::IprAccess                     0      0.00%    100.00% # Class of executed instruction
system.cpu0.op_class::InstPrefetch                  0      0.00%    100.00% # Class of executed instruction
system.cpu0.op_class::total                        23                       # Class of executed instruction
system.cpu0.workload.numSyscalls                    0                       # Number of system calls
system.cpu1.Branches                                1                       # Number of branches fetched
system.cpu1.committedInsts                         14                       # Number of instructions committed
system.cpu1.committedOps                           23                       # Number of ops (including micro ops) committed
system.cpu1.idle_fraction                           0                       # Percentage of idle cycles
system.cpu1.l2bus.snoop_filter.hit_multi_requests            3                       # Number of requests hitting in the snoop filter with multiple (>1) holders of the requested data.
system.cpu1.l2bus.snoop_filter.hit_multi_snoops            0                       # Number of snoops hitting in the snoop filter with multiple (>1) holders of the requested data.
system.cpu1.l2bus.snoop_filter.hit_single_requests      2574624                       # Number of requests hitting in the snoop filter with a single holder of the requested data.
system.cpu1.l2bus.snoop_filter.hit_single_snoops         6167                       # Number of snoops hitting in the snoop filter with a single holder of the requested data.
system.cpu1.l2bus.snoop_filter.tot_requests      5019052                       # Total number of requests made to the snoop filter.
system.cpu1.l2bus.snoop_filter.tot_snoops         6167                       # Total number of snoops made to the snoop filter.
system.cpu1.mmucache.mmubus.snoop_filter.hit_multi_requests            0                       # Number of requests hitting in the snoop filter with multiple (>1) holders of the requested data.
system.cpu1.mmucache.mmubus.snoop_filter.hit_multi_snoops            0                       # Number of snoops hitting in the snoop filter with multiple (>1) holders of the requested data.
system.cpu1.mmucache.mmubus.snoop_filter.hit_single_requests            0                       # Number of requests hitting in the snoop filter with a single holder of the requested data.
system.cpu1.mmucache.mmubus.snoop_filter.hit_single_snoops            0                       # Number of snoops hitting in the snoop filter with a single holder of the requested data.
system.cpu1.mmucache.mmubus.snoop_filter.tot_requests            0                       # Total number of requests made to the snoop filter.
system.cpu1.mmucache.mmubus.snoop_filter.tot_snoops            0                       # Total number of snoops made to the snoop filter.
system.cpu1.not_idle_fraction                       1                       # Percentage of non-idle cycles
system.cpu1.numCycles                              30                       # number of cpu cycles simulated
system.cpu1.numWorkItemsCompleted                   0                       # number of work items this cpu completed
system.cpu1.numWorkItemsStarted                     0                       # number of work items this cpu started
system.cpu1.num_busy_cycles                        30                       # Number of busy cycles
system.cpu1.num_cc_register_reads                   5                       # number of times the CC registers were read
system.cpu1.num_cc_register_writes                  8                       # number of times the CC registers were written
system.cpu1.num_conditional_control_insts            1                       # number of instructions that are conditional controls
system.cpu1.num_fp_alu_accesses                    12                       # Number of float alu accesses
system.cpu1.num_fp_insts                           12                       # number of float instructions
system.cpu1.num_fp_register_reads                  21                       # number of times the floating registers were read
system.cpu1.num_fp_register_writes                 11                       # number of times the floating registers were written
system.cpu1.num_func_calls                          0                       # number of times a function call or return occured
system.cpu1.num_idle_cycles                         0                       # Number of idle cycles
system.cpu1.num_int_alu_accesses                   16                       # Number of integer alu accesses
system.cpu1.num_int_insts                          16                       # number of integer instructions
system.cpu1.num_int_register_reads                 33                       # number of times the integer registers were read
system.cpu1.num_int_register_writes                10                       # number of times the integer registers were written
system.cpu1.num_load_insts                          6                       # Number of load instructions
system.cpu1.num_mem_refs                            7                       # number of memory refs
system.cpu1.num_store_insts                         1                       # Number of store instructions
system.cpu1.num_vec_alu_accesses                    0                       # Number of vector alu accesses
system.cpu1.num_vec_insts                           0                       # number of vector instructions
system.cpu1.num_vec_register_reads                  0                       # number of times the vector registers were read
system.cpu1.num_vec_register_writes                 0                       # number of times the vector registers were written
system.cpu1.op_class::No_OpClass                    0      0.00%      0.00% # Class of executed instruction
system.cpu1.op_class::IntAlu                       10     43.48%     43.48% # Class of executed instruction
system.cpu1.op_class::IntMult                       0      0.00%     43.48% # Class of executed instruction
system.cpu1.op_class::IntDiv                        0      0.00%     43.48% # Class of executed instruction
system.cpu1.op_class::FloatAdd                      0      0.00%     43.48% # Class of executed instruction
system.cpu1.op_class::FloatCmp                      0      0.00%     43.48% # Class of executed instruction
system.cpu1.op_class::FloatCvt                      0      0.00%     43.48% # Class of executed instruction
system.cpu1.op_class::FloatMult                     0      0.00%     43.48% # Class of executed instruction
system.cpu1.op_class::FloatMultAcc                  0      0.00%     43.48% # Class of executed instruction
system.cpu1.op_class::FloatDiv                      0      0.00%     43.48% # Class of executed instruction
system.cpu1.op_class::FloatMisc                     0      0.00%     43.48% # Class of executed instruction
system.cpu1.op_class::FloatSqrt                     0      0.00%     43.48% # Class of executed instruction
system.cpu1.op_class::SimdAdd                       0      0.00%     43.48% # Class of executed instruction
system.cpu1.op_class::SimdAddAcc                    0      0.00%     43.48% # Class of executed instruction
system.cpu1.op_class::SimdAlu                       0      0.00%     43.48% # Class of executed instruction
system.cpu1.op_class::SimdCmp                       0      0.00%     43.48% # Class of executed instruction
system.cpu1.op_class::SimdCvt                       0      0.00%     43.48% # Class of executed instruction
system.cpu1.op_class::SimdMisc                      0      0.00%     43.48% # Class of executed instruction
system.cpu1.op_class::SimdMult                      0      0.00%     43.48% # Class of executed instruction
system.cpu1.op_class::SimdMultAcc                   0      0.00%     43.48% # Class of executed instruction
system.cpu1.op_class::SimdShift                     0      0.00%     43.48% # Class of executed instruction
system.cpu1.op_class::SimdShiftAcc                  0      0.00%     43.48% # Class of executed instruction
system.cpu1.op_class::SimdDiv                       0      0.00%     43.48% # Class of executed instruction
system.cpu1.op_class::SimdSqrt                      0      0.00%     43.48% # Class of executed instruction
system.cpu1.op_class::SimdFloatAdd                  4     17.39%     60.87% # Class of executed instruction
system.cpu1.op_class::SimdFloatAlu                  0      0.00%     60.87% # Class of executed instruction
system.cpu1.op_class::SimdFloatCmp                  0      0.00%     60.87% # Class of executed instruction
system.cpu1.op_class::SimdFloatCvt                  0      0.00%     60.87% # Class of executed instruction
system.cpu1.op_class::SimdFloatDiv                  0      0.00%     60.87% # Class of executed instruction
system.cpu1.op_class::SimdFloatMisc                 0      0.00%     60.87% # Class of executed instruction
system.cpu1.op_class::SimdFloatMult                 2      8.70%     69.57% # Class of executed instruction
system.cpu1.op_class::SimdFloatMultAcc              0      0.00%     69.57% # Class of executed instruction
system.cpu1.op_class::SimdFloatSqrt                 0      0.00%     69.57% # Class of executed instruction
system.cpu1.op_class::SimdReduceAdd                 0      0.00%     69.57% # Class of executed instruction
system.cpu1.op_class::SimdReduceAlu                 0      0.00%     69.57% # Class of executed instruction
system.cpu1.op_class::SimdReduceCmp                 0      0.00%     69.57% # Class of executed instruction
system.cpu1.op_class::SimdFloatReduceAdd            0      0.00%     69.57% # Class of executed instruction
system.cpu1.op_class::SimdFloatReduceCmp            0      0.00%     69.57% # Class of executed instruction
system.cpu1.op_class::SimdAes                       0      0.00%     69.57% # Class of executed instruction
system.cpu1.op_class::SimdAesMix                    0      0.00%     69.57% # Class of executed instruction
system.cpu1.op_class::SimdSha1Hash                  0      0.00%     69.57% # Class of executed instruction
system.cpu1.op_class::SimdSha1Hash2                 0      0.00%     69.57% # Class of executed instruction
system.cpu1.op_class::SimdSha256Hash                0      0.00%     69.57% # Class of executed instruction
system.cpu1.op_class::SimdSha256Hash2               0      0.00%     69.57% # Class of executed instruction
system.cpu1.op_class::SimdShaSigma2                 0      0.00%     69.57% # Class of executed instruction
system.cpu1.op_class::SimdShaSigma3                 0      0.00%     69.57% # Class of executed instruction
system.cpu1.op_class::SimdPredAlu                   0      0.00%     69.57% # Class of executed instruction
system.cpu1.op_class::MemRead                       2      8.70%     78.26% # Class of executed instruction
system.cpu1.op_class::MemWrite                      0      0.00%     78.26% # Class of executed instruction
system.cpu1.op_class::FloatMemRead                  4     17.39%     95.65% # Class of executed instruction
system.cpu1.op_class::FloatMemWrite                 1      4.35%    100.00% # Class of executed instruction
system.cpu1.op_class::IprAccess                     0      0.00%    100.00% # Class of executed instruction
system.cpu1.op_class::InstPrefetch                  0      0.00%    100.00% # Class of executed instruction
system.cpu1.op_class::total                        23                       # Class of executed instruction
system.cpu1.workload.numSyscalls                    0                       # Number of system calls
system.cpu2.Branches                                1                       # Number of branches fetched
system.cpu2.committedInsts                         14                       # Number of instructions committed
system.cpu2.committedOps                           23                       # Number of ops (including micro ops) committed
system.cpu2.idle_fraction                           0                       # Percentage of idle cycles
system.cpu2.l2bus.snoop_filter.hit_multi_requests            2                       # Number of requests hitting in the snoop filter with multiple (>1) holders of the requested data.
system.cpu2.l2bus.snoop_filter.hit_multi_snoops            0                       # Number of snoops hitting in the snoop filter with multiple (>1) holders of the requested data.
system.cpu2.l2bus.snoop_filter.hit_single_requests      2573799                       # Number of requests hitting in the snoop filter with a single holder of the requested data.
system.cpu2.l2bus.snoop_filter.hit_single_snoops         5771                       # Number of snoops hitting in the snoop filter with a single holder of the requested data.
system.cpu2.l2bus.snoop_filter.tot_requests      5018258                       # Total number of requests made to the snoop filter.
system.cpu2.l2bus.snoop_filter.tot_snoops         5771                       # Total number of snoops made to the snoop filter.
system.cpu2.mmucache.mmubus.snoop_filter.hit_multi_requests            0                       # Number of requests hitting in the snoop filter with multiple (>1) holders of the requested data.
system.cpu2.mmucache.mmubus.snoop_filter.hit_multi_snoops            0                       # Number of snoops hitting in the snoop filter with multiple (>1) holders of the requested data.
system.cpu2.mmucache.mmubus.snoop_filter.hit_single_requests            0                       # Number of requests hitting in the snoop filter with a single holder of the requested data.
system.cpu2.mmucache.mmubus.snoop_filter.hit_single_snoops            0                       # Number of snoops hitting in the snoop filter with a single holder of the requested data.
system.cpu2.mmucache.mmubus.snoop_filter.tot_requests            0                       # Total number of requests made to the snoop filter.
system.cpu2.mmucache.mmubus.snoop_filter.tot_snoops            0                       # Total number of snoops made to the snoop filter.
system.cpu2.not_idle_fraction                       1                       # Percentage of non-idle cycles
system.cpu2.numCycles                              30                       # number of cpu cycles simulated
system.cpu2.numWorkItemsCompleted                   0                       # number of work items this cpu completed
system.cpu2.numWorkItemsStarted                     0                       # number of work items this cpu started
system.cpu2.num_busy_cycles                        30                       # Number of busy cycles
system.cpu2.num_cc_register_reads                   5                       # number of times the CC registers were read
system.cpu2.num_cc_register_writes                  8                       # number of times the CC registers were written
system.cpu2.num_conditional_control_insts            1                       # number of instructions that are conditional controls
system.cpu2.num_fp_alu_accesses                    12                       # Number of float alu accesses
system.cpu2.num_fp_insts                           12                       # number of float instructions
system.cpu2.num_fp_register_reads                  21                       # number of times the floating registers were read
system.cpu2.num_fp_register_writes                 11                       # number of times the floating registers were written
system.cpu2.num_func_calls                          0                       # number of times a function call or return occured
system.cpu2.num_idle_cycles                         0                       # Number of idle cycles
system.cpu2.num_int_alu_accesses                   16                       # Number of integer alu accesses
system.cpu2.num_int_insts                          16                       # number of integer instructions
system.cpu2.num_int_register_reads                 33                       # number of times the integer registers were read
system.cpu2.num_int_register_writes                10                       # number of times the integer registers were written
system.cpu2.num_load_insts                          6                       # Number of load instructions
system.cpu2.num_mem_refs                            7                       # number of memory refs
system.cpu2.num_store_insts                         1                       # Number of store instructions
system.cpu2.num_vec_alu_accesses                    0                       # Number of vector alu accesses
system.cpu2.num_vec_insts                           0                       # number of vector instructions
system.cpu2.num_vec_register_reads                  0                       # number of times the vector registers were read
system.cpu2.num_vec_register_writes                 0                       # number of times the vector registers were written
system.cpu2.op_class::No_OpClass                    0      0.00%      0.00% # Class of executed instruction
system.cpu2.op_class::IntAlu                       10     43.48%     43.48% # Class of executed instruction
system.cpu2.op_class::IntMult                       0      0.00%     43.48% # Class of executed instruction
system.cpu2.op_class::IntDiv                        0      0.00%     43.48% # Class of executed instruction
system.cpu2.op_class::FloatAdd                      0      0.00%     43.48% # Class of executed instruction
system.cpu2.op_class::FloatCmp                      0      0.00%     43.48% # Class of executed instruction
system.cpu2.op_class::FloatCvt                      0      0.00%     43.48% # Class of executed instruction
system.cpu2.op_class::FloatMult                     0      0.00%     43.48% # Class of executed instruction
system.cpu2.op_class::FloatMultAcc                  0      0.00%     43.48% # Class of executed instruction
system.cpu2.op_class::FloatDiv                      0      0.00%     43.48% # Class of executed instruction
system.cpu2.op_class::FloatMisc                     0      0.00%     43.48% # Class of executed instruction
system.cpu2.op_class::FloatSqrt                     0      0.00%     43.48% # Class of executed instruction
system.cpu2.op_class::SimdAdd                       0      0.00%     43.48% # Class of executed instruction
system.cpu2.op_class::SimdAddAcc                    0      0.00%     43.48% # Class of executed instruction
system.cpu2.op_class::SimdAlu                       0      0.00%     43.48% # Class of executed instruction
system.cpu2.op_class::SimdCmp                       0      0.00%     43.48% # Class of executed instruction
system.cpu2.op_class::SimdCvt                       0      0.00%     43.48% # Class of executed instruction
system.cpu2.op_class::SimdMisc                      0      0.00%     43.48% # Class of executed instruction
system.cpu2.op_class::SimdMult                      0      0.00%     43.48% # Class of executed instruction
system.cpu2.op_class::SimdMultAcc                   0      0.00%     43.48% # Class of executed instruction
system.cpu2.op_class::SimdShift                     0      0.00%     43.48% # Class of executed instruction
system.cpu2.op_class::SimdShiftAcc                  0      0.00%     43.48% # Class of executed instruction
system.cpu2.op_class::SimdDiv                       0      0.00%     43.48% # Class of executed instruction
system.cpu2.op_class::SimdSqrt                      0      0.00%     43.48% # Class of executed instruction
system.cpu2.op_class::SimdFloatAdd                  4     17.39%     60.87% # Class of executed instruction
system.cpu2.op_class::SimdFloatAlu                  0      0.00%     60.87% # Class of executed instruction
system.cpu2.op_class::SimdFloatCmp                  0      0.00%     60.87% # Class of executed instruction
system.cpu2.op_class::SimdFloatCvt                  0      0.00%     60.87% # Class of executed instruction
system.cpu2.op_class::SimdFloatDiv                  0      0.00%     60.87% # Class of executed instruction
system.cpu2.op_class::SimdFloatMisc                 0      0.00%     60.87% # Class of executed instruction
system.cpu2.op_class::SimdFloatMult                 2      8.70%     69.57% # Class of executed instruction
system.cpu2.op_class::SimdFloatMultAcc              0      0.00%     69.57% # Class of executed instruction
system.cpu2.op_class::SimdFloatSqrt                 0      0.00%     69.57% # Class of executed instruction
system.cpu2.op_class::SimdReduceAdd                 0      0.00%     69.57% # Class of executed instruction
system.cpu2.op_class::SimdReduceAlu                 0      0.00%     69.57% # Class of executed instruction
system.cpu2.op_class::SimdReduceCmp                 0      0.00%     69.57% # Class of executed instruction
system.cpu2.op_class::SimdFloatReduceAdd            0      0.00%     69.57% # Class of executed instruction
system.cpu2.op_class::SimdFloatReduceCmp            0      0.00%     69.57% # Class of executed instruction
system.cpu2.op_class::SimdAes                       0      0.00%     69.57% # Class of executed instruction
system.cpu2.op_class::SimdAesMix                    0      0.00%     69.57% # Class of executed instruction
system.cpu2.op_class::SimdSha1Hash                  0      0.00%     69.57% # Class of executed instruction
system.cpu2.op_class::SimdSha1Hash2                 0      0.00%     69.57% # Class of executed instruction
system.cpu2.op_class::SimdSha256Hash                0      0.00%     69.57% # Class of executed instruction
system.cpu2.op_class::SimdSha256Hash2               0      0.00%     69.57% # Class of executed instruction
system.cpu2.op_class::SimdShaSigma2                 0      0.00%     69.57% # Class of executed instruction
system.cpu2.op_class::SimdShaSigma3                 0      0.00%     69.57% # Class of executed instruction
system.cpu2.op_class::SimdPredAlu                   0      0.00%     69.57% # Class of executed instruction
system.cpu2.op_class::MemRead                       2      8.70%     78.26% # Class of executed instruction
system.cpu2.op_class::MemWrite                      0      0.00%     78.26% # Class of executed instruction
system.cpu2.op_class::FloatMemRead                  4     17.39%     95.65% # Class of executed instruction
system.cpu2.op_class::FloatMemWrite                 1      4.35%    100.00% # Class of executed instruction
system.cpu2.op_class::IprAccess                     0      0.00%    100.00% # Class of executed instruction
system.cpu2.op_class::InstPrefetch                  0      0.00%    100.00% # Class of executed instruction
system.cpu2.op_class::total                        23                       # Class of executed instruction
system.cpu2.workload.numSyscalls                    0                       # Number of system calls
system.cpu3.Branches                                1                       # Number of branches fetched
system.cpu3.committedInsts                         14                       # Number of instructions committed
system.cpu3.committedOps                           23                       # Number of ops (including micro ops) committed
system.cpu3.idle_fraction                           0                       # Percentage of idle cycles
system.cpu3.l2bus.snoop_filter.hit_multi_requests            2                       # Number of requests hitting in the snoop filter with multiple (>1) holders of the requested data.
system.cpu3.l2bus.snoop_filter.hit_multi_snoops            0                       # Number of snoops hitting in the snoop filter with multiple (>1) holders of the requested data.
system.cpu3.l2bus.snoop_filter.hit_single_requests      2573689                       # Number of requests hitting in the snoop filter with a single holder of the requested data.
system.cpu3.l2bus.snoop_filter.hit_single_snoops         5760                       # Number of snoops hitting in the snoop filter with a single holder of the requested data.
system.cpu3.l2bus.snoop_filter.tot_requests      5018070                       # Total number of requests made to the snoop filter.
system.cpu3.l2bus.snoop_filter.tot_snoops         5760                       # Total number of snoops made to the snoop filter.
system.cpu3.mmucache.mmubus.snoop_filter.hit_multi_requests            0                       # Number of requests hitting in the snoop filter with multiple (>1) holders of the requested data.
system.cpu3.mmucache.mmubus.snoop_filter.hit_multi_snoops            0                       # Number of snoops hitting in the snoop filter with multiple (>1) holders of the requested data.
system.cpu3.mmucache.mmubus.snoop_filter.hit_single_requests            0                       # Number of requests hitting in the snoop filter with a single holder of the requested data.
system.cpu3.mmucache.mmubus.snoop_filter.hit_single_snoops            0                       # Number of snoops hitting in the snoop filter with a single holder of the requested data.
system.cpu3.mmucache.mmubus.snoop_filter.tot_requests            0                       # Total number of requests made to the snoop filter.
system.cpu3.mmucache.mmubus.snoop_filter.tot_snoops            0                       # Total number of snoops made to the snoop filter.
system.cpu3.not_idle_fraction                       1                       # Percentage of non-idle cycles
system.cpu3.numCycles                              30                       # number of cpu cycles simulated
system.cpu3.numWorkItemsCompleted                   0                       # number of work items this cpu completed
system.cpu3.numWorkItemsStarted                     0                       # number of work items this cpu started
system.cpu3.num_busy_cycles                        30                       # Number of busy cycles
system.cpu3.num_cc_register_reads                   5                       # number of times the CC registers were read
system.cpu3.num_cc_register_writes                  8                       # number of times the CC registers were written
system.cpu3.num_conditional_control_insts            1                       # number of instructions that are conditional controls
system.cpu3.num_fp_alu_accesses                    12                       # Number of float alu accesses
system.cpu3.num_fp_insts                           12                       # number of float instructions
system.cpu3.num_fp_register_reads                  21                       # number of times the floating registers were read
system.cpu3.num_fp_register_writes                 11                       # number of times the floating registers were written
system.cpu3.num_func_calls                          0                       # number of times a function call or return occured
system.cpu3.num_idle_cycles                         0                       # Number of idle cycles
system.cpu3.num_int_alu_accesses                   16                       # Number of integer alu accesses
system.cpu3.num_int_insts                          16                       # number of integer instructions
system.cpu3.num_int_register_reads                 33                       # number of times the integer registers were read
system.cpu3.num_int_register_writes                10                       # number of times the integer registers were written
system.cpu3.num_load_insts                          6                       # Number of load instructions
system.cpu3.num_mem_refs                            7                       # number of memory refs
system.cpu3.num_store_insts                         1                       # Number of store instructions
system.cpu3.num_vec_alu_accesses                    0                       # Number of vector alu accesses
system.cpu3.num_vec_insts                           0                       # number of vector instructions
system.cpu3.num_vec_register_reads                  0                       # number of times the vector registers were read
system.cpu3.num_vec_register_writes                 0                       # number of times the vector registers were written
system.cpu3.op_class::No_OpClass                    0      0.00%      0.00% # Class of executed instruction
system.cpu3.op_class::IntAlu                       10     43.48%     43.48% # Class of executed instruction
system.cpu3.op_class::IntMult                       0      0.00%     43.48% # Class of executed instruction
system.cpu3.op_class::IntDiv                        0      0.00%     43.48% # Class of executed instruction
system.cpu3.op_class::FloatAdd                      0      0.00%     43.48% # Class of executed instruction
system.cpu3.op_class::FloatCmp                      0      0.00%     43.48% # Class of executed instruction
system.cpu3.op_class::FloatCvt                      0      0.00%     43.48% # Class of executed instruction
system.cpu3.op_class::FloatMult                     0      0.00%     43.48% # Class of executed instruction
system.cpu3.op_class::FloatMultAcc                  0      0.00%     43.48% # Class of executed instruction
system.cpu3.op_class::FloatDiv                      0      0.00%     43.48% # Class of executed instruction
system.cpu3.op_class::FloatMisc                     0      0.00%     43.48% # Class of executed instruction
system.cpu3.op_class::FloatSqrt                     0      0.00%     43.48% # Class of executed instruction
system.cpu3.op_class::SimdAdd                       0      0.00%     43.48% # Class of executed instruction
system.cpu3.op_class::SimdAddAcc                    0      0.00%     43.48% # Class of executed instruction
system.cpu3.op_class::SimdAlu                       0      0.00%     43.48% # Class of executed instruction
system.cpu3.op_class::SimdCmp                       0      0.00%     43.48% # Class of executed instruction
system.cpu3.op_class::SimdCvt                       0      0.00%     43.48% # Class of executed instruction
system.cpu3.op_class::SimdMisc                      0      0.00%     43.48% # Class of executed instruction
system.cpu3.op_class::SimdMult                      0      0.00%     43.48% # Class of executed instruction
system.cpu3.op_class::SimdMultAcc                   0      0.00%     43.48% # Class of executed instruction
system.cpu3.op_class::SimdShift                     0      0.00%     43.48% # Class of executed instruction
system.cpu3.op_class::SimdShiftAcc                  0      0.00%     43.48% # Class of executed instruction
system.cpu3.op_class::SimdDiv                       0      0.00%     43.48% # Class of executed instruction
system.cpu3.op_class::SimdSqrt                      0      0.00%     43.48% # Class of executed instruction
system.cpu3.op_class::SimdFloatAdd                  4     17.39%     60.87% # Class of executed instruction
system.cpu3.op_class::SimdFloatAlu                  0      0.00%     60.87% # Class of executed instruction
system.cpu3.op_class::SimdFloatCmp                  0      0.00%     60.87% # Class of executed instruction
system.cpu3.op_class::SimdFloatCvt                  0      0.00%     60.87% # Class of executed instruction
system.cpu3.op_class::SimdFloatDiv                  0      0.00%     60.87% # Class of executed instruction
system.cpu3.op_class::SimdFloatMisc                 0      0.00%     60.87% # Class of executed instruction
system.cpu3.op_class::SimdFloatMult                 2      8.70%     69.57% # Class of executed instruction
system.cpu3.op_class::SimdFloatMultAcc              0      0.00%     69.57% # Class of executed instruction
system.cpu3.op_class::SimdFloatSqrt                 0      0.00%     69.57% # Class of executed instruction
system.cpu3.op_class::SimdReduceAdd                 0      0.00%     69.57% # Class of executed instruction
system.cpu3.op_class::SimdReduceAlu                 0      0.00%     69.57% # Class of executed instruction
system.cpu3.op_class::SimdReduceCmp                 0      0.00%     69.57% # Class of executed instruction
system.cpu3.op_class::SimdFloatReduceAdd            0      0.00%     69.57% # Class of executed instruction
system.cpu3.op_class::SimdFloatReduceCmp            0      0.00%     69.57% # Class of executed instruction
system.cpu3.op_class::SimdAes                       0      0.00%     69.57% # Class of executed instruction
system.cpu3.op_class::SimdAesMix                    0      0.00%     69.57% # Class of executed instruction
system.cpu3.op_class::SimdSha1Hash                  0      0.00%     69.57% # Class of executed instruction
system.cpu3.op_class::SimdSha1Hash2                 0      0.00%     69.57% # Class of executed instruction
system.cpu3.op_class::SimdSha256Hash                0      0.00%     69.57% # Class of executed instruction
system.cpu3.op_class::SimdSha256Hash2               0      0.00%     69.57% # Class of executed instruction
system.cpu3.op_class::SimdShaSigma2                 0      0.00%     69.57% # Class of executed instruction
system.cpu3.op_class::SimdShaSigma3                 0      0.00%     69.57% # Class of executed instruction
system.cpu3.op_class::SimdPredAlu                   0      0.00%     69.57% # Class of executed instruction
system.cpu3.op_class::MemRead                       2      8.70%     78.26% # Class of executed instruction
system.cpu3.op_class::MemWrite                      0      0.00%     78.26% # Class of executed instruction
system.cpu3.op_class::FloatMemRead                  4     17.39%     95.65% # Class of executed instruction
system.cpu3.op_class::FloatMemWrite                 1      4.35%    100.00% # Class of executed instruction
system.cpu3.op_class::IprAccess                     0      0.00%    100.00% # Class of executed instruction
system.cpu3.op_class::InstPrefetch                  0      0.00%    100.00% # Class of executed instruction
system.cpu3.op_class::total                        23                       # Class of executed instruction
system.cpu3.workload.numSyscalls                    0                       # Number of system calls
system.l3bus.snoop_filter.hit_multi_requests            0                       # Number of requests hitting in the snoop filter with multiple (>1) holders of the requested data.
system.l3bus.snoop_filter.hit_multi_snoops            0                       # Number of snoops hitting in the snoop filter with multiple (>1) holders of the requested data.
system.l3bus.snoop_filter.hit_single_requests      7484185                       # Number of requests hitting in the snoop filter with a single holder of the requested data.
system.l3bus.snoop_filter.hit_single_snoops            6                       # Number of snoops hitting in the snoop filter with a single holder of the requested data.
system.l3bus.snoop_filter.tot_requests       15035299                       # Total number of requests made to the snoop filter.
system.l3bus.snoop_filter.tot_snoops                6                       # Total number of snoops made to the snoop filter.
system.membus.snoop_filter.hit_multi_requests            0                       # Number of requests hitting in the snoop filter with multiple (>1) holders of the requested data.
system.membus.snoop_filter.hit_multi_snoops            0                       # Number of snoops hitting in the snoop filter with multiple (>1) holders of the requested data.
system.membus.snoop_filter.hit_single_requests      4723868                       # Number of requests hitting in the snoop filter with a single holder of the requested data.
system.membus.snoop_filter.hit_single_snoops            0                       # Number of snoops hitting in the snoop filter with a single holder of the requested data.
system.membus.snoop_filter.tot_requests       9518684                       # Total number of requests made to the snoop filter.
system.membus.snoop_filter.tot_snoops               0                       # Total number of snoops made to the snoop filter.
system.switch_cpus0.cc_regfile_reads        130715436                       # number of cc regfile reads
system.switch_cpus0.cc_regfile_writes        97931161                       # number of cc regfile writes
system.switch_cpus0.committedInsts          250000000                       # Number of Instructions Simulated
system.switch_cpus0.committedOps            412717679                       # Number of Ops (including micro ops) Simulated
system.switch_cpus0.cpi                      1.307600                       # CPI: Cycles Per Instruction
system.switch_cpus0.cpi_total                1.307600                       # CPI: Total CPI of All Threads
system.switch_cpus0.fp_regfile_reads        302026949                       # number of floating regfile reads
system.switch_cpus0.fp_regfile_writes       159570694                       # number of floating regfile writes
system.switch_cpus0.idleCycles                 131733                       # Total number of cycles that the CPU has spent unscheduled due to idling
system.switch_cpus0.iew.branchMispredicts        19007                       # Number of branch mispredicts detected at execute
system.switch_cpus0.iew.exec_branches        28475700                       # Number of branches executed
system.switch_cpus0.iew.exec_nop                    0                       # number of nop insts executed
system.switch_cpus0.iew.exec_rate            1.263749                       # Inst execution rate
system.switch_cpus0.iew.exec_refs            96921999                       # number of memory reference insts executed
system.switch_cpus0.iew.exec_stores          27538671                       # Number of stores executed
system.switch_cpus0.iew.exec_swp                    0                       # number of swp insts executed
system.switch_cpus0.iew.iewBlockCycles       73286459                       # Number of cycles IEW is blocking
system.switch_cpus0.iew.iewDispLoadInsts     69427737                       # Number of dispatched load instructions
system.switch_cpus0.iew.iewDispNonSpecInsts            3                       # Number of dispatched non-speculative instructions
system.switch_cpus0.iew.iewDispSquashedInsts          534                       # Number of squashed instructions skipped by dispatch
system.switch_cpus0.iew.iewDispStoreInsts     27595171                       # Number of dispatched store instructions
system.switch_cpus0.iew.iewDispatchedInsts    413427240                       # Number of instructions dispatched to IQ
system.switch_cpus0.iew.iewExecLoadInsts     69383328                       # Number of load instructions executed
system.switch_cpus0.iew.iewExecSquashedInsts        56189                       # Number of squashed instructions skipped in execute
system.switch_cpus0.iew.iewExecutedInsts    413119460                       # Number of executed instructions
system.switch_cpus0.iew.iewIQFullEvents        149025                       # Number of times the IQ has become full, causing a stall
system.switch_cpus0.iew.iewIdleCycles               0                       # Number of cycles IEW is idle
system.switch_cpus0.iew.iewLSQFullEvents     29612933                       # Number of times the LSQ has become full, causing a stall
system.switch_cpus0.iew.iewSquashCycles         20804                       # Number of cycles IEW is squashing
system.switch_cpus0.iew.iewUnblockCycles     29880473                       # Number of cycles IEW is unblocking
system.switch_cpus0.iew.memOrderViolationEvents         2269                       # Number of memory order violations
system.switch_cpus0.iew.predictedNotTakenIncorrect         6331                       # Number of branches that were predicted not taken incorrectly
system.switch_cpus0.iew.predictedTakenIncorrect        12676                       # Number of branches that were predicted taken incorrectly
system.switch_cpus0.iew.wb_consumers        507989617                       # num instructions consuming a value
system.switch_cpus0.iew.wb_count            413076521                       # cumulative count of insts written-back
system.switch_cpus0.iew.wb_fanout            0.602646                       # average fanout of values written-back
system.switch_cpus0.iew.wb_producers        306137833                       # num instructions producing a value
system.switch_cpus0.iew.wb_rate              1.263617                       # insts written-back per cycle
system.switch_cpus0.iew.wb_sent             413095523                       # cumulative count of insts sent to commit
system.switch_cpus0.int_regfile_reads       405481430                       # number of integer regfile reads
system.switch_cpus0.int_regfile_writes      190915030                       # number of integer regfile writes
system.switch_cpus0.ipc                      0.764760                       # IPC: Instructions Per Cycle
system.switch_cpus0.ipc_total                0.764760                       # IPC: Total IPC of All Threads
system.switch_cpus0.iq.FU_type_0::No_OpClass        11950      0.00%      0.00% # Type of FU issued
system.switch_cpus0.iq.FU_type_0::IntAlu    221793405     53.68%     53.68% # Type of FU issued
system.switch_cpus0.iq.FU_type_0::IntMult        17887      0.00%     53.69% # Type of FU issued
system.switch_cpus0.iq.FU_type_0::IntDiv            0      0.00%     53.69% # Type of FU issued
system.switch_cpus0.iq.FU_type_0::FloatAdd     12497648      3.02%     56.71% # Type of FU issued
system.switch_cpus0.iq.FU_type_0::FloatCmp            0      0.00%     56.71% # Type of FU issued
system.switch_cpus0.iq.FU_type_0::FloatCvt            0      0.00%     56.71% # Type of FU issued
system.switch_cpus0.iq.FU_type_0::FloatMult            0      0.00%     56.71% # Type of FU issued
system.switch_cpus0.iq.FU_type_0::FloatMultAcc            0      0.00%     56.71% # Type of FU issued
system.switch_cpus0.iq.FU_type_0::FloatDiv            0      0.00%     56.71% # Type of FU issued
system.switch_cpus0.iq.FU_type_0::FloatMisc            0      0.00%     56.71% # Type of FU issued
system.switch_cpus0.iq.FU_type_0::FloatSqrt            0      0.00%     56.71% # Type of FU issued
system.switch_cpus0.iq.FU_type_0::SimdAdd            0      0.00%     56.71% # Type of FU issued
system.switch_cpus0.iq.FU_type_0::SimdAddAcc            0      0.00%     56.71% # Type of FU issued
system.switch_cpus0.iq.FU_type_0::SimdAlu      8957171      2.17%     58.88% # Type of FU issued
system.switch_cpus0.iq.FU_type_0::SimdCmp            0      0.00%     58.88% # Type of FU issued
system.switch_cpus0.iq.FU_type_0::SimdCvt            0      0.00%     58.88% # Type of FU issued
system.switch_cpus0.iq.FU_type_0::SimdMisc      5331542      1.29%     60.17% # Type of FU issued
system.switch_cpus0.iq.FU_type_0::SimdMult            0      0.00%     60.17% # Type of FU issued
system.switch_cpus0.iq.FU_type_0::SimdMultAcc            0      0.00%     60.17% # Type of FU issued
system.switch_cpus0.iq.FU_type_0::SimdShift            0      0.00%     60.17% # Type of FU issued
system.switch_cpus0.iq.FU_type_0::SimdShiftAcc            0      0.00%     60.17% # Type of FU issued
system.switch_cpus0.iq.FU_type_0::SimdDiv            0      0.00%     60.17% # Type of FU issued
system.switch_cpus0.iq.FU_type_0::SimdSqrt            0      0.00%     60.17% # Type of FU issued
system.switch_cpus0.iq.FU_type_0::SimdFloatAdd     30064171      7.28%     67.45% # Type of FU issued
system.switch_cpus0.iq.FU_type_0::SimdFloatAlu            0      0.00%     67.45% # Type of FU issued
system.switch_cpus0.iq.FU_type_0::SimdFloatCmp       376832      0.09%     67.54% # Type of FU issued
system.switch_cpus0.iq.FU_type_0::SimdFloatCvt      6594220      1.60%     69.13% # Type of FU issued
system.switch_cpus0.iq.FU_type_0::SimdFloatDiv      3034038      0.73%     69.87% # Type of FU issued
system.switch_cpus0.iq.FU_type_0::SimdFloatMisc            0      0.00%     69.87% # Type of FU issued
system.switch_cpus0.iq.FU_type_0::SimdFloatMult     27036974      6.54%     76.41% # Type of FU issued
system.switch_cpus0.iq.FU_type_0::SimdFloatMultAcc            0      0.00%     76.41% # Type of FU issued
system.switch_cpus0.iq.FU_type_0::SimdFloatSqrt       506044      0.12%     76.53% # Type of FU issued
system.switch_cpus0.iq.FU_type_0::SimdReduceAdd            0      0.00%     76.53% # Type of FU issued
system.switch_cpus0.iq.FU_type_0::SimdReduceAlu            0      0.00%     76.53% # Type of FU issued
system.switch_cpus0.iq.FU_type_0::SimdReduceCmp            0      0.00%     76.53% # Type of FU issued
system.switch_cpus0.iq.FU_type_0::SimdFloatReduceAdd            0      0.00%     76.53% # Type of FU issued
system.switch_cpus0.iq.FU_type_0::SimdFloatReduceCmp            0      0.00%     76.53% # Type of FU issued
system.switch_cpus0.iq.FU_type_0::SimdAes            0      0.00%     76.53% # Type of FU issued
system.switch_cpus0.iq.FU_type_0::SimdAesMix            0      0.00%     76.53% # Type of FU issued
system.switch_cpus0.iq.FU_type_0::SimdSha1Hash            0      0.00%     76.53% # Type of FU issued
system.switch_cpus0.iq.FU_type_0::SimdSha1Hash2            0      0.00%     76.53% # Type of FU issued
system.switch_cpus0.iq.FU_type_0::SimdSha256Hash            0      0.00%     76.53% # Type of FU issued
system.switch_cpus0.iq.FU_type_0::SimdSha256Hash2            0      0.00%     76.53% # Type of FU issued
system.switch_cpus0.iq.FU_type_0::SimdShaSigma2            0      0.00%     76.53% # Type of FU issued
system.switch_cpus0.iq.FU_type_0::SimdShaSigma3            0      0.00%     76.53% # Type of FU issued
system.switch_cpus0.iq.FU_type_0::SimdPredAlu            0      0.00%     76.53% # Type of FU issued
system.switch_cpus0.iq.FU_type_0::MemRead     26779257      6.48%     83.02% # Type of FU issued
system.switch_cpus0.iq.FU_type_0::MemWrite     13501301      3.27%     86.28% # Type of FU issued
system.switch_cpus0.iq.FU_type_0::FloatMemRead     42622446     10.32%     96.60% # Type of FU issued
system.switch_cpus0.iq.FU_type_0::FloatMemWrite     14050766      3.40%    100.00% # Type of FU issued
system.switch_cpus0.iq.FU_type_0::IprAccess            0      0.00%    100.00% # Type of FU issued
system.switch_cpus0.iq.FU_type_0::InstPrefetch            0      0.00%    100.00% # Type of FU issued
system.switch_cpus0.iq.FU_type_0::total     413175652                       # Type of FU issued
system.switch_cpus0.iq.fp_alu_accesses      187495399                       # Number of floating point alu accesses
system.switch_cpus0.iq.fp_inst_queue_reads    373076701                       # Number of floating instruction queue reads
system.switch_cpus0.iq.fp_inst_queue_wakeup_accesses    185533348                       # Number of floating instruction queue wakeup accesses
system.switch_cpus0.iq.fp_inst_queue_writes    185988570                       # Number of floating instruction queue writes
system.switch_cpus0.iq.fu_busy_cnt            6580059                       # FU busy when requested
system.switch_cpus0.iq.fu_busy_rate          0.015926                       # FU busy rate (busy events/executed inst)
system.switch_cpus0.iq.fu_full::No_OpClass            0      0.00%      0.00% # attempts to use FU when none available
system.switch_cpus0.iq.fu_full::IntAlu        2873013     43.66%     43.66% # attempts to use FU when none available
system.switch_cpus0.iq.fu_full::IntMult             0      0.00%     43.66% # attempts to use FU when none available
system.switch_cpus0.iq.fu_full::IntDiv              0      0.00%     43.66% # attempts to use FU when none available
system.switch_cpus0.iq.fu_full::FloatAdd          484      0.01%     43.67% # attempts to use FU when none available
system.switch_cpus0.iq.fu_full::FloatCmp            0      0.00%     43.67% # attempts to use FU when none available
system.switch_cpus0.iq.fu_full::FloatCvt            0      0.00%     43.67% # attempts to use FU when none available
system.switch_cpus0.iq.fu_full::FloatMult            0      0.00%     43.67% # attempts to use FU when none available
system.switch_cpus0.iq.fu_full::FloatMultAcc            0      0.00%     43.67% # attempts to use FU when none available
system.switch_cpus0.iq.fu_full::FloatDiv            0      0.00%     43.67% # attempts to use FU when none available
system.switch_cpus0.iq.fu_full::FloatMisc            0      0.00%     43.67% # attempts to use FU when none available
system.switch_cpus0.iq.fu_full::FloatSqrt            0      0.00%     43.67% # attempts to use FU when none available
system.switch_cpus0.iq.fu_full::SimdAdd             0      0.00%     43.67% # attempts to use FU when none available
system.switch_cpus0.iq.fu_full::SimdAddAcc            0      0.00%     43.67% # attempts to use FU when none available
system.switch_cpus0.iq.fu_full::SimdAlu        118552      1.80%     45.47% # attempts to use FU when none available
system.switch_cpus0.iq.fu_full::SimdCmp             0      0.00%     45.47% # attempts to use FU when none available
system.switch_cpus0.iq.fu_full::SimdCvt             0      0.00%     45.47% # attempts to use FU when none available
system.switch_cpus0.iq.fu_full::SimdMisc            0      0.00%     45.47% # attempts to use FU when none available
system.switch_cpus0.iq.fu_full::SimdMult            0      0.00%     45.47% # attempts to use FU when none available
system.switch_cpus0.iq.fu_full::SimdMultAcc            0      0.00%     45.47% # attempts to use FU when none available
system.switch_cpus0.iq.fu_full::SimdShift            0      0.00%     45.47% # attempts to use FU when none available
system.switch_cpus0.iq.fu_full::SimdShiftAcc            0      0.00%     45.47% # attempts to use FU when none available
system.switch_cpus0.iq.fu_full::SimdDiv             0      0.00%     45.47% # attempts to use FU when none available
system.switch_cpus0.iq.fu_full::SimdSqrt            0      0.00%     45.47% # attempts to use FU when none available
system.switch_cpus0.iq.fu_full::SimdFloatAdd       162448      2.47%     47.94% # attempts to use FU when none available
system.switch_cpus0.iq.fu_full::SimdFloatAlu            0      0.00%     47.94% # attempts to use FU when none available
system.switch_cpus0.iq.fu_full::SimdFloatCmp            0      0.00%     47.94% # attempts to use FU when none available
system.switch_cpus0.iq.fu_full::SimdFloatCvt          506      0.01%     47.95% # attempts to use FU when none available
system.switch_cpus0.iq.fu_full::SimdFloatDiv        19636      0.30%     48.25% # attempts to use FU when none available
system.switch_cpus0.iq.fu_full::SimdFloatMisc            0      0.00%     48.25% # attempts to use FU when none available
system.switch_cpus0.iq.fu_full::SimdFloatMult       237789      3.61%     51.86% # attempts to use FU when none available
system.switch_cpus0.iq.fu_full::SimdFloatMultAcc            0      0.00%     51.86% # attempts to use FU when none available
system.switch_cpus0.iq.fu_full::SimdFloatSqrt          617      0.01%     51.87% # attempts to use FU when none available
system.switch_cpus0.iq.fu_full::SimdReduceAdd            0      0.00%     51.87% # attempts to use FU when none available
system.switch_cpus0.iq.fu_full::SimdReduceAlu            0      0.00%     51.87% # attempts to use FU when none available
system.switch_cpus0.iq.fu_full::SimdReduceCmp            0      0.00%     51.87% # attempts to use FU when none available
system.switch_cpus0.iq.fu_full::SimdFloatReduceAdd            0      0.00%     51.87% # attempts to use FU when none available
system.switch_cpus0.iq.fu_full::SimdFloatReduceCmp            0      0.00%     51.87% # attempts to use FU when none available
system.switch_cpus0.iq.fu_full::SimdAes             0      0.00%     51.87% # attempts to use FU when none available
system.switch_cpus0.iq.fu_full::SimdAesMix            0      0.00%     51.87% # attempts to use FU when none available
system.switch_cpus0.iq.fu_full::SimdSha1Hash            0      0.00%     51.87% # attempts to use FU when none available
system.switch_cpus0.iq.fu_full::SimdSha1Hash2            0      0.00%     51.87% # attempts to use FU when none available
system.switch_cpus0.iq.fu_full::SimdSha256Hash            0      0.00%     51.87% # attempts to use FU when none available
system.switch_cpus0.iq.fu_full::SimdSha256Hash2            0      0.00%     51.87% # attempts to use FU when none available
system.switch_cpus0.iq.fu_full::SimdShaSigma2            0      0.00%     51.87% # attempts to use FU when none available
system.switch_cpus0.iq.fu_full::SimdShaSigma3            0      0.00%     51.87% # attempts to use FU when none available
system.switch_cpus0.iq.fu_full::SimdPredAlu            0      0.00%     51.87% # attempts to use FU when none available
system.switch_cpus0.iq.fu_full::MemRead       1293940     19.66%     71.53% # attempts to use FU when none available
system.switch_cpus0.iq.fu_full::MemWrite       547666      8.32%     79.86% # attempts to use FU when none available
system.switch_cpus0.iq.fu_full::FloatMemRead      1033371     15.70%     95.56% # attempts to use FU when none available
system.switch_cpus0.iq.fu_full::FloatMemWrite       292037      4.44%    100.00% # attempts to use FU when none available
system.switch_cpus0.iq.fu_full::IprAccess            0      0.00%    100.00% # attempts to use FU when none available
system.switch_cpus0.iq.fu_full::InstPrefetch            0      0.00%    100.00% # attempts to use FU when none available
system.switch_cpus0.iq.int_alu_accesses     232248362                       # Number of integer alu accesses
system.switch_cpus0.iq.int_inst_queue_reads    786638089                       # Number of integer instruction queue reads
system.switch_cpus0.iq.int_inst_queue_wakeup_accesses    227543173                       # Number of integer instruction queue wakeup accesses
system.switch_cpus0.iq.int_inst_queue_writes    228150398                       # Number of integer instruction queue writes
system.switch_cpus0.iq.iqInstsAdded         413427231                       # Number of instructions added to the IQ (excludes non-spec)
system.switch_cpus0.iq.iqInstsIssued        413175652                       # Number of instructions issued
system.switch_cpus0.iq.iqNonSpecInstsAdded            9                       # Number of non-speculative instructions added to the IQ
system.switch_cpus0.iq.iqSquashedInstsExamined       709481                       # Number of squashed instructions iterated over during squash; mainly for profiling
system.switch_cpus0.iq.iqSquashedInstsIssued        15176                       # Number of squashed instructions issued
system.switch_cpus0.iq.iqSquashedNonSpecRemoved            9                       # Number of squashed non-spec instructions that were removed
system.switch_cpus0.iq.iqSquashedOperandsExamined      1105342                       # Number of squashed operands that are examined and possibly removed from graph
system.switch_cpus0.iq.issued_per_cycle::samples    326768254                       # Number of insts issued each cycle
system.switch_cpus0.iq.issued_per_cycle::mean     1.264430                       # Number of insts issued each cycle
system.switch_cpus0.iq.issued_per_cycle::stdev     2.508351                       # Number of insts issued each cycle
system.switch_cpus0.iq.issued_per_cycle::underflows            0      0.00%      0.00% # Number of insts issued each cycle
system.switch_cpus0.iq.issued_per_cycle::0    248576026     76.07%     76.07% # Number of insts issued each cycle
system.switch_cpus0.iq.issued_per_cycle::1      5952918      1.82%     77.89% # Number of insts issued each cycle
system.switch_cpus0.iq.issued_per_cycle::2      6025602      1.84%     79.74% # Number of insts issued each cycle
system.switch_cpus0.iq.issued_per_cycle::3      6447150      1.97%     81.71% # Number of insts issued each cycle
system.switch_cpus0.iq.issued_per_cycle::4      9590118      2.93%     84.64% # Number of insts issued each cycle
system.switch_cpus0.iq.issued_per_cycle::5     10779461      3.30%     87.94% # Number of insts issued each cycle
system.switch_cpus0.iq.issued_per_cycle::6     10019261      3.07%     91.01% # Number of insts issued each cycle
system.switch_cpus0.iq.issued_per_cycle::7     11565007      3.54%     94.55% # Number of insts issued each cycle
system.switch_cpus0.iq.issued_per_cycle::8     17812711      5.45%    100.00% # Number of insts issued each cycle
system.switch_cpus0.iq.issued_per_cycle::overflows            0      0.00%    100.00% # Number of insts issued each cycle
system.switch_cpus0.iq.issued_per_cycle::min_value            0                       # Number of insts issued each cycle
system.switch_cpus0.iq.issued_per_cycle::max_value            8                       # Number of insts issued each cycle
system.switch_cpus0.iq.issued_per_cycle::total    326768254                       # Number of insts issued each cycle
system.switch_cpus0.iq.rate                  1.263921                       # Inst issue rate
system.switch_cpus0.iq.vec_alu_accesses             0                       # Number of vector alu accesses
system.switch_cpus0.iq.vec_inst_queue_reads            0                       # Number of vector instruction queue reads
system.switch_cpus0.iq.vec_inst_queue_wakeup_accesses            0                       # Number of vector instruction queue wakeup accesses
system.switch_cpus0.iq.vec_inst_queue_writes            0                       # Number of vector instruction queue writes
system.switch_cpus0.memDep0.conflictingLoads      1683963                       # Number of conflicting loads.
system.switch_cpus0.memDep0.conflictingStores      1402078                       # Number of conflicting stores.
system.switch_cpus0.memDep0.insertedLoads     69427737                       # Number of loads inserted to the mem dependence unit.
system.switch_cpus0.memDep0.insertedStores     27595171                       # Number of stores inserted to the mem dependence unit.
system.switch_cpus0.misc_regfile_reads      170970011                       # number of misc regfile reads
system.switch_cpus0.misc_regfile_writes             1                       # number of misc regfile writes
system.switch_cpus0.numCycles               326899987                       # number of cpu cycles simulated
system.switch_cpus0.numWorkItemsCompleted            0                       # number of work items this cpu completed
system.switch_cpus0.numWorkItemsStarted             0                       # number of work items this cpu started
system.switch_cpus0.timesIdled                    371                       # Number of times that the entire CPU went into an idle state and unscheduled itself
system.switch_cpus1.cc_regfile_reads        130675483                       # number of cc regfile reads
system.switch_cpus1.cc_regfile_writes        97907135                       # number of cc regfile writes
system.switch_cpus1.committedInsts          249927576                       # Number of Instructions Simulated
system.switch_cpus1.committedOps            412596751                       # Number of Ops (including micro ops) Simulated
system.switch_cpus1.cpi                      1.307979                       # CPI: Cycles Per Instruction
system.switch_cpus1.cpi_total                1.307979                       # CPI: Total CPI of All Threads
system.switch_cpus1.fp_regfile_reads        301937378                       # number of floating regfile reads
system.switch_cpus1.fp_regfile_writes       159521497                       # number of floating regfile writes
system.switch_cpus1.idleCycles                 132490                       # Total number of cycles that the CPU has spent unscheduled due to idling
system.switch_cpus1.iew.branchMispredicts        18983                       # Number of branch mispredicts detected at execute
system.switch_cpus1.iew.exec_branches        28467851                       # Number of branches executed
system.switch_cpus1.iew.exec_nop                    0                       # number of nop insts executed
system.switch_cpus1.iew.exec_rate            1.263378                       # Inst execution rate
system.switch_cpus1.iew.exec_refs            96891138                       # number of memory reference insts executed
system.switch_cpus1.iew.exec_stores          27530051                       # Number of stores executed
system.switch_cpus1.iew.exec_swp                    0                       # number of swp insts executed
system.switch_cpus1.iew.iewBlockCycles       73260253                       # Number of cycles IEW is blocking
system.switch_cpus1.iew.iewDispLoadInsts     69405527                       # Number of dispatched load instructions
system.switch_cpus1.iew.iewDispNonSpecInsts            3                       # Number of dispatched non-speculative instructions
system.switch_cpus1.iew.iewDispSquashedInsts          570                       # Number of squashed instructions skipped by dispatch
system.switch_cpus1.iew.iewDispStoreInsts     27586480                       # Number of dispatched store instructions
system.switch_cpus1.iew.iewDispatchedInsts    413305799                       # Number of instructions dispatched to IQ
system.switch_cpus1.iew.iewExecLoadInsts     69361087                       # Number of load instructions executed
system.switch_cpus1.iew.iewExecSquashedInsts        56160                       # Number of squashed instructions skipped in execute
system.switch_cpus1.iew.iewExecutedInsts    412998246                       # Number of executed instructions
system.switch_cpus1.iew.iewIQFullEvents        149083                       # Number of times the IQ has become full, causing a stall
system.switch_cpus1.iew.iewIdleCycles               0                       # Number of cycles IEW is idle
system.switch_cpus1.iew.iewLSQFullEvents     29841050                       # Number of times the LSQ has become full, causing a stall
system.switch_cpus1.iew.iewSquashCycles         20798                       # Number of cycles IEW is squashing
system.switch_cpus1.iew.iewUnblockCycles     30108676                       # Number of cycles IEW is unblocking
system.switch_cpus1.iew.memOrderViolationEvents         2267                       # Number of memory order violations
system.switch_cpus1.iew.predictedNotTakenIncorrect         6308                       # Number of branches that were predicted not taken incorrectly
system.switch_cpus1.iew.predictedTakenIncorrect        12675                       # Number of branches that were predicted taken incorrectly
system.switch_cpus1.iew.wb_consumers        507829970                       # num instructions consuming a value
system.switch_cpus1.iew.wb_count            412955379                       # cumulative count of insts written-back
system.switch_cpus1.iew.wb_fanout            0.602658                       # average fanout of values written-back
system.switch_cpus1.iew.wb_producers        306047679                       # num instructions producing a value
system.switch_cpus1.iew.wb_rate              1.263247                       # insts written-back per cycle
system.switch_cpus1.iew.wb_sent             412974396                       # cumulative count of insts sent to commit
system.switch_cpus1.int_regfile_reads       405362563                       # number of integer regfile reads
system.switch_cpus1.int_regfile_writes      190862072                       # number of integer regfile writes
system.switch_cpus1.ipc                      0.764538                       # IPC: Instructions Per Cycle
system.switch_cpus1.ipc_total                0.764538                       # IPC: Total IPC of All Threads
system.switch_cpus1.iq.FU_type_0::No_OpClass        11919      0.00%      0.00% # Type of FU issued
system.switch_cpus1.iq.FU_type_0::IntAlu    221732325     53.68%     53.68% # Type of FU issued
system.switch_cpus1.iq.FU_type_0::IntMult        17890      0.00%     53.69% # Type of FU issued
system.switch_cpus1.iq.FU_type_0::IntDiv            0      0.00%     53.69% # Type of FU issued
system.switch_cpus1.iq.FU_type_0::FloatAdd     12492356      3.02%     56.71% # Type of FU issued
system.switch_cpus1.iq.FU_type_0::FloatCmp            0      0.00%     56.71% # Type of FU issued
system.switch_cpus1.iq.FU_type_0::FloatCvt            0      0.00%     56.71% # Type of FU issued
system.switch_cpus1.iq.FU_type_0::FloatMult            0      0.00%     56.71% # Type of FU issued
system.switch_cpus1.iq.FU_type_0::FloatMultAcc            0      0.00%     56.71% # Type of FU issued
system.switch_cpus1.iq.FU_type_0::FloatDiv            0      0.00%     56.71% # Type of FU issued
system.switch_cpus1.iq.FU_type_0::FloatMisc            0      0.00%     56.71% # Type of FU issued
system.switch_cpus1.iq.FU_type_0::FloatSqrt            0      0.00%     56.71% # Type of FU issued
system.switch_cpus1.iq.FU_type_0::SimdAdd            0      0.00%     56.71% # Type of FU issued
system.switch_cpus1.iq.FU_type_0::SimdAddAcc            0      0.00%     56.71% # Type of FU issued
system.switch_cpus1.iq.FU_type_0::SimdAlu      8954485      2.17%     58.88% # Type of FU issued
system.switch_cpus1.iq.FU_type_0::SimdCmp            0      0.00%     58.88% # Type of FU issued
system.switch_cpus1.iq.FU_type_0::SimdCvt            0      0.00%     58.88% # Type of FU issued
system.switch_cpus1.iq.FU_type_0::SimdMisc      5330062      1.29%     60.17% # Type of FU issued
system.switch_cpus1.iq.FU_type_0::SimdMult            0      0.00%     60.17% # Type of FU issued
system.switch_cpus1.iq.FU_type_0::SimdMultAcc            0      0.00%     60.17% # Type of FU issued
system.switch_cpus1.iq.FU_type_0::SimdShift            0      0.00%     60.17% # Type of FU issued
system.switch_cpus1.iq.FU_type_0::SimdShiftAcc            0      0.00%     60.17% # Type of FU issued
system.switch_cpus1.iq.FU_type_0::SimdDiv            0      0.00%     60.17% # Type of FU issued
system.switch_cpus1.iq.FU_type_0::SimdSqrt            0      0.00%     60.17% # Type of FU issued
system.switch_cpus1.iq.FU_type_0::SimdFloatAdd     30054823      7.28%     67.45% # Type of FU issued
system.switch_cpus1.iq.FU_type_0::SimdFloatAlu            0      0.00%     67.45% # Type of FU issued
system.switch_cpus1.iq.FU_type_0::SimdFloatCmp       376832      0.09%     67.54% # Type of FU issued
system.switch_cpus1.iq.FU_type_0::SimdFloatCvt      6591752      1.60%     69.13% # Type of FU issued
system.switch_cpus1.iq.FU_type_0::SimdFloatDiv      3033955      0.73%     69.87% # Type of FU issued
system.switch_cpus1.iq.FU_type_0::SimdFloatMisc            0      0.00%     69.87% # Type of FU issued
system.switch_cpus1.iq.FU_type_0::SimdFloatMult     27029180      6.54%     76.41% # Type of FU issued
system.switch_cpus1.iq.FU_type_0::SimdFloatMultAcc            0      0.00%     76.41% # Type of FU issued
system.switch_cpus1.iq.FU_type_0::SimdFloatSqrt       505962      0.12%     76.54% # Type of FU issued
system.switch_cpus1.iq.FU_type_0::SimdReduceAdd            0      0.00%     76.54% # Type of FU issued
system.switch_cpus1.iq.FU_type_0::SimdReduceAlu            0      0.00%     76.54% # Type of FU issued
system.switch_cpus1.iq.FU_type_0::SimdReduceCmp            0      0.00%     76.54% # Type of FU issued
system.switch_cpus1.iq.FU_type_0::SimdFloatReduceAdd            0      0.00%     76.54% # Type of FU issued
system.switch_cpus1.iq.FU_type_0::SimdFloatReduceCmp            0      0.00%     76.54% # Type of FU issued
[...]
system.switch_cpus3.commit.numCommittedDist::0    254789224     78.00%     78.00% # Number of insts commited each cycle
system.switch_cpus3.commit.numCommittedDist::1     11955024      3.66%     81.66% # Number of insts commited each cycle
system.switch_cpus3.commit.numCommittedDist::2      4542517      1.39%     83.05% # Number of insts commited each cycle
system.switch_cpus3.commit.numCommittedDist::3      5267958      1.61%     84.66% # Number of insts commited each cycle
system.switch_cpus3.commit.numCommittedDist::4      3241776      0.99%     85.65% # Number of insts commited each cycle
system.switch_cpus3.commit.numCommittedDist::5      2148314      0.66%     86.31% # Number of insts commited each cycle
system.switch_cpus3.commit.numCommittedDist::6      1647206      0.50%     86.82% # Number of insts commited each cycle
system.switch_cpus3.commit.numCommittedDist::7      2393566      0.73%     87.55% # Number of insts commited each cycle
system.switch_cpus3.commit.numCommittedDist::8     40675730     12.45%    100.00% # Number of insts commited each cycle
system.switch_cpus3.commit.numCommittedDist::overflows            0      0.00%    100.00% # Number of insts commited each cycle
system.switch_cpus3.commit.numCommittedDist::min_value            0                       # Number of insts commited each cycle
system.switch_cpus3.commit.numCommittedDist::max_value            8                       # Number of insts commited each cycle
system.switch_cpus3.commit.numCommittedDist::total    326661315                       # Number of insts commited each cycle
system.switch_cpus3.commit.instsCommitted    249927483                       # Number of instructions committed
system.switch_cpus3.commit.opsCommitted     412596644                       # Number of ops (including micro ops) committed
system.switch_cpus3.commit.memRefs           96705530                       # Number of memory references committed
system.switch_cpus3.commit.loads             69224697                       # Number of loads committed
system.switch_cpus3.commit.amos                     0                       # Number of atomic instructions committed
system.switch_cpus3.commit.membars                  0                       # Number of memory barriers committed
system.switch_cpus3.commit.branches          28453380                       # Number of branches committed
system.switch_cpus3.commit.vector                   0                       # Number of committed Vector instructions.
system.switch_cpus3.commit.floating         185389652                       # Number of committed floating point instructions.
system.switch_cpus3.commit.integer          289088480                       # Number of committed integer instructions.
system.switch_cpus3.commit.functionCalls      2180384                       # Number of function calls committed.
system.switch_cpus3.commit.committedInstType_0::No_OpClass        11422      0.00%      0.00% # Class of committed instruction
system.switch_cpus3.commit.committedInstType_0::IntAlu    221521720     53.69%     53.69% # Class of committed instruction
system.switch_cpus3.commit.committedInstType_0::IntMult        17844      0.00%     53.70% # Class of committed instruction
system.switch_cpus3.commit.committedInstType_0::IntDiv            0      0.00%     53.70% # Class of committed instruction
system.switch_cpus3.commit.committedInstType_0::FloatAdd     12491675      3.03%     56.72% # Class of committed instruction
system.switch_cpus3.commit.committedInstType_0::FloatCmp            0      0.00%     56.72% # Class of committed instruction
system.switch_cpus3.commit.committedInstType_0::FloatCvt            0      0.00%     56.72% # Class of committed instruction
system.switch_cpus3.commit.committedInstType_0::FloatMult            0      0.00%     56.72% # Class of committed instruction
system.switch_cpus3.commit.committedInstType_0::FloatMultAcc            0      0.00%     56.72% # Class of committed instruction
system.switch_cpus3.commit.committedInstType_0::FloatDiv            0      0.00%     56.72% # Class of committed instruction
system.switch_cpus3.commit.committedInstType_0::FloatMisc            0      0.00%     56.72% # Class of committed instruction
system.switch_cpus3.commit.committedInstType_0::FloatSqrt            0      0.00%     56.72% # Class of committed instruction
system.switch_cpus3.commit.committedInstType_0::SimdAdd            0      0.00%     56.72% # Class of committed instruction
system.switch_cpus3.commit.committedInstType_0::SimdAddAcc            0      0.00%     56.72% # Class of committed instruction
system.switch_cpus3.commit.committedInstType_0::SimdAlu      8948864      2.17%     58.89% # Class of committed instruction
system.switch_cpus3.commit.committedInstType_0::SimdCmp            0      0.00%     58.89% # Class of committed instruction
system.switch_cpus3.commit.committedInstType_0::SimdCvt            0      0.00%     58.89% # Class of committed instruction
system.switch_cpus3.commit.committedInstType_0::SimdMisc      5329535      1.29%     60.18% # Class of committed instruction
system.switch_cpus3.commit.committedInstType_0::SimdMult            0      0.00%     60.18% # Class of committed instruction
system.switch_cpus3.commit.committedInstType_0::SimdMultAcc            0      0.00%     60.18% # Class of committed instruction
system.switch_cpus3.commit.committedInstType_0::SimdShift            0      0.00%     60.18% # Class of committed instruction
system.switch_cpus3.commit.committedInstType_0::SimdShiftAcc            0      0.00%     60.18% # Class of committed instruction
system.switch_cpus3.commit.committedInstType_0::SimdDiv            0      0.00%     60.18% # Class of committed instruction
system.switch_cpus3.commit.committedInstType_0::SimdSqrt            0      0.00%     60.18% # Class of committed instruction
system.switch_cpus3.commit.committedInstType_0::SimdFloatAdd     30048301      7.28%     67.47% # Class of committed instruction
system.switch_cpus3.commit.committedInstType_0::SimdFloatAlu            0      0.00%     67.47% # Class of committed instruction
system.switch_cpus3.commit.committedInstType_0::SimdFloatCmp       376832      0.09%     67.56% # Class of committed instruction
system.switch_cpus3.commit.committedInstType_0::SimdFloatCvt      6585136      1.60%     69.16% # Class of committed instruction
system.switch_cpus3.commit.committedInstType_0::SimdFloatDiv      3033951      0.74%     69.89% # Class of committed instruction
system.switch_cpus3.commit.committedInstType_0::SimdFloatMisc            0      0.00%     69.89% # Class of committed instruction
system.switch_cpus3.commit.committedInstType_0::SimdFloatMult     27019872      6.55%     76.44% # Class of committed instruction
system.switch_cpus3.commit.committedInstType_0::SimdFloatMultAcc            0      0.00%     76.44% # Class of committed instruction
system.switch_cpus3.commit.committedInstType_0::SimdFloatSqrt       505962      0.12%     76.56% # Class of committed instruction
system.switch_cpus3.commit.committedInstType_0::SimdReduceAdd            0      0.00%     76.56% # Class of committed instruction
system.switch_cpus3.commit.committedInstType_0::SimdReduceAlu            0      0.00%     76.56% # Class of committed instruction
system.switch_cpus3.commit.committedInstType_0::SimdReduceCmp            0      0.00%     76.56% # Class of committed instruction
system.switch_cpus3.commit.committedInstType_0::SimdFloatReduceAdd            0      0.00%     76.56% # Class of committed instruction
system.switch_cpus3.commit.committedInstType_0::SimdFloatReduceCmp            0      0.00%     76.56% # Class of committed instruction
system.switch_cpus3.commit.committedInstType_0::SimdAes            0      0.00%     76.56% # Class of committed instruction
system.switch_cpus3.commit.committedInstType_0::SimdAesMix            0      0.00%     76.56% # Class of committed instruction
system.switch_cpus3.commit.committedInstType_0::SimdSha1Hash            0      0.00%     76.56% # Class of committed instruction
system.switch_cpus3.commit.committedInstType_0::SimdSha1Hash2            0      0.00%     76.56% # Class of committed instruction
system.switch_cpus3.commit.committedInstType_0::SimdSha256Hash            0      0.00%     76.56% # Class of committed instruction
system.switch_cpus3.commit.committedInstType_0::SimdSha256Hash2            0      0.00%     76.56% # Class of committed instruction
system.switch_cpus3.commit.committedInstType_0::SimdShaSigma2            0      0.00%     76.56% # Class of committed instruction
system.switch_cpus3.commit.committedInstType_0::SimdShaSigma3            0      0.00%     76.56% # Class of committed instruction
system.switch_cpus3.commit.committedInstType_0::SimdPredAlu            0      0.00%     76.56% # Class of committed instruction
system.switch_cpus3.commit.committedInstType_0::MemRead     26689571      6.47%     83.03% # Class of committed instruction
system.switch_cpus3.commit.committedInstType_0::MemWrite     13448408      3.26%     86.29% # Class of committed instruction
system.switch_cpus3.commit.committedInstType_0::FloatMemRead     42535126     10.31%     96.60% # Class of committed instruction
system.switch_cpus3.commit.committedInstType_0::FloatMemWrite     14032425      3.40%    100.00% # Class of committed instruction
system.switch_cpus3.commit.committedInstType_0::IprAccess            0      0.00%    100.00% # Class of committed instruction
system.switch_cpus3.commit.committedInstType_0::InstPrefetch            0      0.00%    100.00% # Class of committed instruction
system.switch_cpus3.commit.committedInstType_0::total    412596644                       # Class of committed instruction
system.switch_cpus3.commit.commitEligibleSamples     40675730                       # number cycles where commit BW limit reached
system.switch_cpus3.decode.idleCycles         4140668                       # Number of cycles decode is idle
system.switch_cpus3.decode.blockedCycles    262830407                       # Number of cycles decode is blocked
system.switch_cpus3.decode.runCycles         54223425                       # Number of cycles decode is running
system.switch_cpus3.decode.unblockCycles      5544411                       # Number of cycles decode is unblocking
system.switch_cpus3.decode.squashCycles         20767                       # Number of cycles decode is squashing
system.switch_cpus3.decode.branchResolved      9249510                       # Number of times decode resolved a  branch
system.switch_cpus3.decode.branchMispred          128                       # Number of times decode detected a branch misprediction
system.switch_cpus3.decode.decodedInsts     413603686                       # Number of instructions handled by decode
system.switch_cpus3.decode.squashedInsts          641                       # Number of squashed instructions handled by decode
system.switch_cpus3.dtb.rdAccesses           69360278                       # TLB accesses on read requests
system.switch_cpus3.dtb.wrAccesses           27530190                       # TLB accesses on write requests
system.switch_cpus3.dtb.rdMisses              1091644                       # TLB misses on read requests
system.switch_cpus3.dtb.wrMisses                14183                       # TLB misses on write requests
system.switch_cpus3.dtb.walker.power_state.pwrStateResidencyTicks::UNDEFINED 15760114783326                       # Cumulative time (in ticks) in various power states
system.switch_cpus3.fetch.icacheStallCycles        95703                       # Number of cycles fetch is stalled on an Icache miss
system.switch_cpus3.fetch.insts             250893454                       # Number of instructions fetch has processed
system.switch_cpus3.fetch.branches           28537908                       # Number of branches that fetch encountered
system.switch_cpus3.fetch.predictedBranches     13749130                       # Number of branches that fetch has predicted taken
system.switch_cpus3.fetch.cycles            326643024                       # Number of cycles fetch has run and was not squashing or blocked
system.switch_cpus3.fetch.squashCycles          41788                       # Number of cycles fetch has spent squashing
system.switch_cpus3.fetch.miscStallCycles            9                       # Number of cycles fetch has spent waiting on interrupts,or bad addresses, or out of MSHRs
system.switch_cpus3.fetch.pendingTrapStallCycles           59                       # Number of stall cycles due to pending traps
system.switch_cpus3.fetch.cacheLines         30564646                       # Number of cache lines fetched
system.switch_cpus3.fetch.icacheSquashes          220                       # Number of outstanding Icache misses that were squashed
system.switch_cpus3.fetch.nisnDist::samples    326759689                       # Number of instructions fetched each cycle (Total)
system.switch_cpus3.fetch.nisnDist::mean     1.266985                       # Number of instructions fetched each cycle (Total)
system.switch_cpus3.fetch.nisnDist::stdev     2.745764                       # Number of instructions fetched each cycle (Total)
system.switch_cpus3.fetch.nisnDist::underflows            0      0.00%      0.00% # Number of instructions fetched each cycle (Total)
system.switch_cpus3.fetch.nisnDist::0       260066234     79.59%     79.59% # Number of instructions fetched each cycle (Total)
system.switch_cpus3.fetch.nisnDist::1         5815520      1.78%     81.37% # Number of instructions fetched each cycle (Total)
system.switch_cpus3.fetch.nisnDist::2         2612378      0.80%     82.17% # Number of instructions fetched each cycle (Total)
system.switch_cpus3.fetch.nisnDist::3         6773978      2.07%     84.24% # Number of instructions fetched each cycle (Total)
system.switch_cpus3.fetch.nisnDist::4         2484206      0.76%     85.00% # Number of instructions fetched each cycle (Total)
system.switch_cpus3.fetch.nisnDist::5         3034071      0.93%     85.93% # Number of instructions fetched each cycle (Total)
system.switch_cpus3.fetch.nisnDist::6         3383849      1.04%     86.97% # Number of instructions fetched each cycle (Total)
system.switch_cpus3.fetch.nisnDist::7         3488569      1.07%     88.03% # Number of instructions fetched each cycle (Total)
system.switch_cpus3.fetch.nisnDist::8        39100884     11.97%    100.00% # Number of instructions fetched each cycle (Total)
system.switch_cpus3.fetch.nisnDist::overflows            0      0.00%    100.00% # Number of instructions fetched each cycle (Total)
system.switch_cpus3.fetch.nisnDist::min_value            0                       # Number of instructions fetched each cycle (Total)
system.switch_cpus3.fetch.nisnDist::max_value            8                       # Number of instructions fetched each cycle (Total)
system.switch_cpus3.fetch.nisnDist::total    326759689                       # Number of instructions fetched each cycle (Total)
system.switch_cpus3.fetch.branchRate         0.087299                       # Number of branch fetches per cycle
system.switch_cpus3.fetch.rate               0.767493                       # Number of inst fetches per cycle
system.switch_cpus3.itb.rdAccesses                  0                       # TLB accesses on read requests
system.switch_cpus3.itb.wrAccesses           30564656                       # TLB accesses on write requests
system.switch_cpus3.itb.rdMisses                    0                       # TLB misses on read requests
system.switch_cpus3.itb.wrMisses                   35                       # TLB misses on write requests
system.switch_cpus3.itb.walker.power_state.pwrStateResidencyTicks::UNDEFINED 15760114783326                       # Cumulative time (in ticks) in various power states
system.switch_cpus3.lsq0.forwLoads            4332143                       # Number of loads that had data forwarded from stores
system.switch_cpus3.lsq0.squashedLoads         180365                       # Number of loads squashed
system.switch_cpus3.lsq0.ignoredResponses          139                       # Number of memory responses ignored because the instruction is squashed
system.switch_cpus3.lsq0.memOrderViolation         2251                       # Number of memory ordering violations
system.switch_cpus3.lsq0.squashedStores        105905                       # Number of stores squashed
system.switch_cpus3.lsq0.rescheduledLoads            1                       # Number of loads that were rescheduled
system.switch_cpus3.lsq0.blockedByCache            45                       # Number of times an access to memory failed due to the cache being blocked
system.switch_cpus3.power_state.pwrStateResidencyTicks::OFF 108857705994                       # Cumulative time (in ticks) in various power states
system.switch_cpus3.rename.squashCycles         20767                       # Number of cycles rename is squashing
system.switch_cpus3.rename.idleCycles         6413756                       # Number of cycles rename is idle
system.switch_cpus3.rename.blockCycles      107846857                       # Number of cycles rename is blocking
system.switch_cpus3.rename.serializeStallCycles            0                       # count of cycles rename stalledfor serializing inst
system.switch_cpus3.rename.runCycles         57395536                       # Number of cycles rename is running
system.switch_cpus3.rename.unblockCycles    155082762                       # Number of cycles rename is unblocking
system.switch_cpus3.rename.renamedInsts     413476126                       # Number of instructions processed by rename
system.switch_cpus3.rename.ROBFullEvents       140027                       # Number of times rename has blocked due to ROB full
system.switch_cpus3.rename.IQFullEvents       7944186                       # Number of times rename has blocked due to IQ full
system.switch_cpus3.rename.LQFullEvents      35992973                       # Number of times rename has blocked due to LQ full
system.switch_cpus3.rename.SQFullEvents     114133201                       # Number of times rename has blocked due to SQ full
system.switch_cpus3.rename.renamedOperands    448794336                       # Number of destination operands rename has renamed
system.switch_cpus3.rename.lookups         1010347590                       # Number of register rename lookups that rename has made
system.switch_cpus3.rename.intLookups       405961362                       # Number of integer rename lookups
system.switch_cpus3.rename.fpLookups        302354506                       # Number of floating rename lookups
system.switch_cpus3.rename.committedMaps    447898307                       # Number of HB maps that are committed
system.switch_cpus3.rename.undoneMaps          895903                       # Number of HB maps that are undone due to squashing
system.switch_cpus3.rename.serializing              0                       # count of serializing insts renamed
system.switch_cpus3.rename.tempSerializing            0                       # count of temporary serializing insts renamed
system.switch_cpus3.rename.skidInsts         27956659                       # count of insts added to the skid buffer
system.switch_cpus3.rob.reads               699291443                       # The number of ROB reads
system.switch_cpus3.rob.writes              826710291                       # The number of ROB writes
system.switch_cpus3.thread0.numInsts        249927483                       # Number of Instructions committed
system.switch_cpus3.thread0.numOps          412596644                       # Number of Ops committed
system.switch_cpus3.thread0.numMemRefs              0                       # Number of Memory References
system.voltage_domain.voltage                       1                       # Voltage in Volts

---------- End Simulation Statistics   ----------
