Command line:
./runscript_pride.sh mcf RFM10.BR2.4C 4 2017 --rh_defense --rh_mitigation=RFM --rh_rfm_per_trefi=10 --rh_rfm_blast_radius=2 --rh_rfm_maxacts_per_trefi=79
Global frequency set at 1000000000000 ticks per second
RFM details - rfm_act_threshold: 7, blast_radius: 2, delay_per_rfm: 175000 ps. sample_rate: 0.125000
RH Defense config: RFM, Bus Delay: 0, rfms_per_trefi: 10, rfm_act_threshold: 7, blast_radius: 2,rfm_delay_per_act: 45000 ps.
DRAM config: RowsPerBank: 65536, BanksPerRank: 32, RanksPerChannel: 1
warn: Sockets disabled, not accepting gdb connections
warn: CoherentXBar system.cpu0.mmucache.mmubus has no snooping ports attached!
warn: CoherentXBar system.cpu1.mmucache.mmubus has no snooping ports attached!
warn: CoherentXBar system.cpu2.mmucache.mmubus has no snooping ports attached!
warn: CoherentXBar system.cpu3.mmucache.mmubus has no snooping ports attached!
warn: Checkpoints for file descriptors currently do not work.
warn: Checkpoints for file descriptors currently do not work.
warn: Checkpoints for file descriptors currently do not work.
warn: Checkpoints for file descriptors currently do not work.
gem5 Simulator System.  http://gem5.org
gem5 is copyrighted software; use the --copyright option for details.

gem5 version 20.1.0.5
gem5 compiled Jul 12 2024 12:42:38
gem5 started Aug  1 2024 18:42:14
gem5 executing on a07dda8b130c, pid 251169
command line: /home/user/PrIDE/performance/gem5/build/X86/gem5.opt --outdir=/home/user/PrIDE/performance/gem5/stats/pride_multiprogram_16GBmem_250Mn.SPEC2017.C4/RFM10.BR2.4C/mcf /home/user/PrIDE/performance/gem5/configs/example/se_rq_spec_config_multicore.py --redirects /lib64=/home/utils/gcc-6.2.0/lib64 --benchmark=mcf --benchmark_stdout=/home/user/PrIDE/performance/gem5/stats/pride_multiprogram_16GBmem_250Mn.SPEC2017.C4/RFM10.BR2.4C/mcf/mcf.out --benchmark_stderr=/home/user/PrIDE/performance/gem5/stats/pride_multiprogram_16GBmem_250Mn.SPEC2017.C4/RFM10.BR2.4C/mcf/mcf.err --spec-version=2017 --rh_defense --rh_mitigation=RFM --rh_rfm_per_trefi=10 --rh_rfm_blast_radius=2 --rh_rfm_maxacts_per_trefi=79 --num-cpus=4 --mem-size=16GB --mem-type=DDR5_2400_32x4 --mem-ranks=1 --mem-channels=1 --checkpoint-dir=/home/user/PrIDE/performance/gem5/cpts-DDR5/multiprogram_16GBmem_25Bn.SPEC2017.C4/mcf-1-ref-x86 --checkpoint-restore=25000000000 --at-instruction --cpu-type DerivO3CPU --caches --l2cache --l1d_size=32kB --l1i_size=32kB --l2_size=256kB --l3_size=4MB --l1d_assoc=8 --l1i_assoc=8 --l2_assoc=16 --l3_assoc=16 --cpu-clock=3GHz --sys-clock=3GHz --maxinsts=250000000 --prog-interval=300Hz

info: Standard input is not a terminal, disabling listeners.
Benchmark- 0   mcf
Selected benchmark
--> mcf
CMD: ['/opt/spec2017/benchspec/CPU/505.mcf_r/run/run_base_refrate_gem5_se-m64.0000/mcf_r_base.gem5_se-m64', '/opt/spec2017/benchspec/CPU/505.mcf_r/run/run_base_refrate_gem5_se-m64.0000/inp.in']
CWD: /opt/spec2017/benchspec/CPU/505.mcf_r/run/run_base_refrate_gem5_se-m64.0000/
Process stdout file: /home/user/PrIDE/performance/gem5/stats/pride_multiprogram_16GBmem_250Mn.SPEC2017.C4/RFM10.BR2.4C/mcf/mcf.out_0
Process stderr file: /home/user/PrIDE/performance/gem5/stats/pride_multiprogram_16GBmem_250Mn.SPEC2017.C4/RFM10.BR2.4C/mcf/mcf.err_0
Benchmark- 1   mcf
Selected benchmark
--> mcf
CMD: ['/opt/spec2017/benchspec/CPU/505.mcf_r/run/run_base_refrate_gem5_se-m64.0000/mcf_r_base.gem5_se-m64', '/opt/spec2017/benchspec/CPU/505.mcf_r/run/run_base_refrate_gem5_se-m64.0000/inp.in']
CWD: /opt/spec2017/benchspec/CPU/505.mcf_r/run/run_base_refrate_gem5_se-m64.0000/
Process stdout file: /home/user/PrIDE/performance/gem5/stats/pride_multiprogram_16GBmem_250Mn.SPEC2017.C4/RFM10.BR2.4C/mcf/mcf.out_1
Process stderr file: /home/user/PrIDE/performance/gem5/stats/pride_multiprogram_16GBmem_250Mn.SPEC2017.C4/RFM10.BR2.4C/mcf/mcf.err_1
Benchmark- 2   mcf
Selected benchmark
--> mcf
CMD: ['/opt/spec2017/benchspec/CPU/505.mcf_r/run/run_base_refrate_gem5_se-m64.0000/mcf_r_base.gem5_se-m64', '/opt/spec2017/benchspec/CPU/505.mcf_r/run/run_base_refrate_gem5_se-m64.0000/inp.in']
CWD: /opt/spec2017/benchspec/CPU/505.mcf_r/run/run_base_refrate_gem5_se-m64.0000/
Process stdout file: /home/user/PrIDE/performance/gem5/stats/pride_multiprogram_16GBmem_250Mn.SPEC2017.C4/RFM10.BR2.4C/mcf/mcf.out_2
Process stderr file: /home/user/PrIDE/performance/gem5/stats/pride_multiprogram_16GBmem_250Mn.SPEC2017.C4/RFM10.BR2.4C/mcf/mcf.err_2
Benchmark- 3   mcf
Selected benchmark
--> mcf
CMD: ['/opt/spec2017/benchspec/CPU/505.mcf_r/run/run_base_refrate_gem5_se-m64.0000/mcf_r_base.gem5_se-m64', '/opt/spec2017/benchspec/CPU/505.mcf_r/run/run_base_refrate_gem5_se-m64.0000/inp.in']
CWD: /opt/spec2017/benchspec/CPU/505.mcf_r/run/run_base_refrate_gem5_se-m64.0000/
Process stdout file: /home/user/PrIDE/performance/gem5/stats/pride_multiprogram_16GBmem_250Mn.SPEC2017.C4/RFM10.BR2.4C/mcf/mcf.out_3
Process stderr file: /home/user/PrIDE/performance/gem5/stats/pride_multiprogram_16GBmem_250Mn.SPEC2017.C4/RFM10.BR2.4C/mcf/mcf.err_3
Workload-0: 
['/opt/spec2017/benchspec/CPU/505.mcf_r/run/run_base_refrate_gem5_se-m64.0000/mcf_r_base.gem5_se-m64', '/opt/spec2017/benchspec/CPU/505.mcf_r/run/run_base_refrate_gem5_se-m64.0000/inp.in']
Workload-1: 
['/opt/spec2017/benchspec/CPU/505.mcf_r/run/run_base_refrate_gem5_se-m64.0000/mcf_r_base.gem5_se-m64', '/opt/spec2017/benchspec/CPU/505.mcf_r/run/run_base_refrate_gem5_se-m64.0000/inp.in']
Workload-2: 
['/opt/spec2017/benchspec/CPU/505.mcf_r/run/run_base_refrate_gem5_se-m64.0000/mcf_r_base.gem5_se-m64', '/opt/spec2017/benchspec/CPU/505.mcf_r/run/run_base_refrate_gem5_se-m64.0000/inp.in']
Workload-3: 
['/opt/spec2017/benchspec/CPU/505.mcf_r/run/run_base_refrate_gem5_se-m64.0000/mcf_r_base.gem5_se-m64', '/opt/spec2017/benchspec/CPU/505.mcf_r/run/run_base_refrate_gem5_se-m64.0000/inp.in']
defense_enable:  True  detector:  MG  mitigation:  RFM  threshold:  800
mg_entries:  1700
rfm_maxacts_per_trefi:  79 rfm_per_trefi:  10 rfm_blast_radius:  2
Switch at curTick count:10000
warn: membus.master is deprecated. `master` is now called `mem_side_ports`
warn: No dot file generated. Please install pydot to generate the dot file and pdf.
info: Entering event queue @ 16815150905778.  Starting simulation...
warn: PowerState: Already in the requested power state, request ignored
Switched CPUS @ tick 16815150915778
switching cpus
**** REAL SIMULATION ****
info: Entering event queue @ 16815150915778.  Starting simulation...
16818484239111: Event_285: system.switch_cpus3 progress event, total committed:8527777, progress insts committed: 8527777, IPC: 0.851925
16818484239111: Event_284: system.switch_cpus2 progress event, total committed:8530338, progress insts committed: 8530338, IPC: 0.852181
16818484239111: Event_283: system.switch_cpus1 progress event, total committed:8528984, progress insts committed: 8528984, IPC: 0.852046
16818484239111: Event_282: system.switch_cpus0 progress event, total committed:8532249, progress insts committed: 8532249, IPC: 0.852372
16821817572444: Event_282: system.switch_cpus0 progress event, total committed:17161763, progress insts committed: 8629514, IPC: 0.862088
16821817572444: Event_283: system.switch_cpus1 progress event, total committed:17148171, progress insts committed: 8619187, IPC: 0.861057
16821817572444: Event_284: system.switch_cpus2 progress event, total committed:17154622, progress insts committed: 8624284, IPC: 0.861566
16821817572444: Event_285: system.switch_cpus3 progress event, total committed:17146992, progress insts committed: 8619215, IPC: 00.86106
16825150905777: Event_285: system.switch_cpus3 progress event, total committed:26489780, progress insts committed: 9342788, IPC: 0.933345
16825150905777: Event_284: system.switch_cpus2 progress event, total committed:26574290, progress insts committed: 9419668, IPC: 0.941025
16825150905777: Event_283: system.switch_cpus1 progress event, total committed:26494593, progress insts committed: 9346422, IPC: 0.933708
16825150905777: Event_282: system.switch_cpus0 progress event, total committed:26893597, progress insts committed: 9731834, IPC: 00.97221
16828484239110: Event_282: system.switch_cpus0 progress event, total committed:37384846, progress insts committed: 10491249, IPC: 01.04808
16828484239110: Event_283: system.switch_cpus1 progress event, total committed:35969608, progress insts committed: 9475015, IPC: 0.946554
16828484239110: Event_284: system.switch_cpus2 progress event, total committed:35985767, progress insts committed: 9411477, IPC: 0.940207
16828484239110: Event_285: system.switch_cpus3 progress event, total committed:35964932, progress insts committed: 9475152, IPC: 0.946568
16831817572443: Event_285: system.switch_cpus3 progress event, total committed:45991220, progress insts committed: 10026288, IPC: 01.00163
16831817572443: Event_284: system.switch_cpus2 progress event, total committed:46267323, progress insts committed: 10281556, IPC: 01.02713
16831817572443: Event_283: system.switch_cpus1 progress event, total committed:46099819, progress insts committed: 10130211, IPC: 01.01201
16831817572443: Event_282: system.switch_cpus0 progress event, total committed:47488045, progress insts committed: 10103199, IPC: 01.00931
16835150905776: Event_282: system.switch_cpus0 progress event, total committed:56542712, progress insts committed: 9054667, IPC: 0.904561
16835150905776: Event_283: system.switch_cpus1 progress event, total committed:55220001, progress insts committed: 9120182, IPC: 0.911106
16835150905776: Event_284: system.switch_cpus2 progress event, total committed:56386764, progress insts committed: 10119441, IPC: 01.01093
16835150905776: Event_285: system.switch_cpus3 progress event, total committed:55002082, progress insts committed: 9010862, IPC: 0.900185
16838484239109: Event_285: system.switch_cpus3 progress event, total committed:64809770, progress insts committed: 9807688, IPC: 0.979788
16838484239109: Event_284: system.switch_cpus2 progress event, total committed:66482344, progress insts committed: 10095580, IPC: 01.00855
16838484239109: Event_283: system.switch_cpus1 progress event, total committed:65428139, progress insts committed: 10208138, IPC: 01.01979
16838484239109: Event_282: system.switch_cpus0 progress event, total committed:66490818, progress insts committed: 9948106, IPC: 0.993816
16841817572442: Event_282: system.switch_cpus0 progress event, total committed:75737001, progress insts committed: 9246183, IPC: 0.923694
16841817572442: Event_283: system.switch_cpus1 progress event, total committed:75425510, progress insts committed: 9997371, IPC: 0.998737
16841817572442: Event_284: system.switch_cpus2 progress event, total committed:75659913, progress insts committed: 9177569, IPC: 0.916839
16841817572442: Event_285: system.switch_cpus3 progress event, total committed:74574787, progress insts committed: 9765017, IPC: 0.975525
16845150905775: Event_285: system.switch_cpus3 progress event, total committed:85333668, progress insts committed: 10758881, IPC: 01.07481
16845150905775: Event_284: system.switch_cpus2 progress event, total committed:85420917, progress insts committed: 9761004, IPC: 0.975124
16845150905775: Event_283: system.switch_cpus1 progress event, total committed:85405196, progress insts committed: 9979686, IPC: 0.996971
16845150905775: Event_282: system.switch_cpus0 progress event, total committed:85444714, progress insts committed: 9707713, IPC: 0.969801
16848484239108: Event_282: system.switch_cpus0 progress event, total committed:95727205, progress insts committed: 10282491, IPC: 01.02722
16848484239108: Event_283: system.switch_cpus1 progress event, total committed:95242575, progress insts committed: 9837379, IPC: 0.982754
16848484239108: Event_284: system.switch_cpus2 progress event, total committed:95394441, progress insts committed: 9973524, IPC: 0.996355
16848484239108: Event_285: system.switch_cpus3 progress event, total committed:95090975, progress insts committed: 9757307, IPC: 0.974755
16851817572441: Event_285: system.switch_cpus3 progress event, total committed:104272956, progress insts committed: 9181981, IPC: 00.91728
16851817572441: Event_284: system.switch_cpus2 progress event, total committed:105518019, progress insts committed: 10123578, IPC: 01.01135
16851817572441: Event_283: system.switch_cpus1 progress event, total committed:104294873, progress insts committed: 9052298, IPC: 0.904325
16851817572441: Event_282: system.switch_cpus0 progress event, total committed:105973458, progress insts committed: 10246253, IPC: 001.0236
16855150905774: Event_282: system.switch_cpus0 progress event, total committed:116113887, progress insts committed: 10140429, IPC: 01.01303
16855150905774: Event_283: system.switch_cpus1 progress event, total committed:114574755, progress insts committed: 10279882, IPC: 01.02696
16855150905774: Event_284: system.switch_cpus2 progress event, total committed:115993733, progress insts committed: 10475714, IPC: 01.04652
16855150905774: Event_285: system.switch_cpus3 progress event, total committed:114414844, progress insts committed: 10141888, IPC: 01.01317
16858484239107: Event_285: system.switch_cpus3 progress event, total committed:123982974, progress insts committed: 9568130, IPC: 0.955856
16858484239107: Event_284: system.switch_cpus2 progress event, total committed:125166511, progress insts committed: 9172778, IPC: 0.916361
16858484239107: Event_283: system.switch_cpus1 progress event, total committed:124935976, progress insts committed: 10361221, IPC: 01.03509
16858484239107: Event_282: system.switch_cpus0 progress event, total committed:125419466, progress insts committed: 9305579, IPC: 0.929627
16861817572440: Event_282: system.switch_cpus0 progress event, total committed:130029571, progress insts committed: 4610105, IPC: 0.460549
16861817572440: Event_283: system.switch_cpus1 progress event, total committed:130018693, progress insts committed: 5082717, IPC: 0.507763
16861817572440: Event_284: system.switch_cpus2 progress event, total committed:130022741, progress insts committed: 4856230, IPC: 0.485137
16861817572440: Event_285: system.switch_cpus3 progress event, total committed:129950797, progress insts committed: 5967823, IPC: 0.596186
16865150905773: Event_285: system.switch_cpus3 progress event, total committed:130351996, progress insts committed: 401199, IPC: 0.0400798
16865150905773: Event_284: system.switch_cpus2 progress event, total committed:132253478, progress insts committed: 2230737, IPC: 0.222851
16865150905773: Event_283: system.switch_cpus1 progress event, total committed:132240931, progress insts committed: 2222238, IPC: 0.222002
16865150905773: Event_282: system.switch_cpus0 progress event, total committed:132292299, progress insts committed: 2262728, IPC: 0.226047
16868484239106: Event_282: system.switch_cpus0 progress event, total committed:142226542, progress insts committed: 9934243, IPC: 0.992431
16868484239106: Event_283: system.switch_cpus1 progress event, total committed:142154546, progress insts committed: 9913615, IPC: 00.99037
16868484239106: Event_284: system.switch_cpus2 progress event, total committed:142157091, progress insts committed: 9903613, IPC: 0.989371
16868484239106: Event_285: system.switch_cpus3 progress event, total committed:140193278, progress insts committed: 9841282, IPC: 0.983144
16871817572439: Event_285: system.switch_cpus3 progress event, total committed:150163780, progress insts committed: 9970502, IPC: 0.996053
16871817572439: Event_284: system.switch_cpus2 progress event, total committed:152069830, progress insts committed: 9912739, IPC: 0.990283
16871817572439: Event_283: system.switch_cpus1 progress event, total committed:152070758, progress insts committed: 9916212, IPC: 00.99063
16871817572439: Event_282: system.switch_cpus0 progress event, total committed:152195557, progress insts committed: 9969015, IPC: 0.995905
16875150905772: Event_282: system.switch_cpus0 progress event, total committed:163996154, progress insts committed: 11800597, IPC: 01.17888
16875150905772: Event_283: system.switch_cpus1 progress event, total committed:162097760, progress insts committed: 10027002, IPC: 001.0017
16875150905772: Event_284: system.switch_cpus2 progress event, total committed:162094870, progress insts committed: 10025040, IPC: 001.0015
16875150905772: Event_285: system.switch_cpus3 progress event, total committed:160746123, progress insts committed: 10582343, IPC: 01.05718
16878484239105: Event_285: system.switch_cpus3 progress event, total committed:172045631, progress insts committed: 11299508, IPC: 01.12882
16878484239105: Event_284: system.switch_cpus2 progress event, total committed:172718993, progress insts committed: 10624123, IPC: 01.06135
16878484239105: Event_283: system.switch_cpus1 progress event, total committed:172905828, progress insts committed: 10808068, IPC: 01.07973
16878484239105: Event_282: system.switch_cpus0 progress event, total committed:174192920, progress insts committed: 10196766, IPC: 01.01866
16881817572438: Event_282: system.switch_cpus0 progress event, total committed:184839356, progress insts committed: 10646436, IPC: 01.06358
16881817572438: Event_283: system.switch_cpus1 progress event, total committed:183924588, progress insts committed: 11018760, IPC: 01.10077
16881817572438: Event_284: system.switch_cpus2 progress event, total committed:183582078, progress insts committed: 10863085, IPC: 01.08522
16881817572438: Event_285: system.switch_cpus3 progress event, total committed:182759325, progress insts committed: 10713694, IPC: 001.0703
16885150905771: Event_285: system.switch_cpus3 progress event, total committed:193776561, progress insts committed: 11017236, IPC: 01.10062
16885150905771: Event_284: system.switch_cpus2 progress event, total committed:194869911, progress insts committed: 11287833, IPC: 01.12765
16885150905771: Event_283: system.switch_cpus1 progress event, total committed:195357378, progress insts committed: 11432790, IPC: 01.14214
16885150905771: Event_282: system.switch_cpus0 progress event, total committed:195790949, progress insts committed: 10951593, IPC: 01.09406
16888484239104: Event_282: system.switch_cpus0 progress event, total committed:206790213, progress insts committed: 10999264, IPC: 01.09883
16888484239104: Event_283: system.switch_cpus1 progress event, total committed:205735527, progress insts committed: 10378149, IPC: 01.03678
16888484239104: Event_284: system.switch_cpus2 progress event, total committed:205728327, progress insts committed: 10858416, IPC: 01.08476
16888484239104: Event_285: system.switch_cpus3 progress event, total committed:204066003, progress insts committed: 10289442, IPC: 01.02792
16891817572437: Event_285: system.switch_cpus3 progress event, total committed:215715750, progress insts committed: 11649747, IPC: 01.16381
16891817572437: Event_284: system.switch_cpus2 progress event, total committed:216771393, progress insts committed: 11043066, IPC: 001.1032
16891817572437: Event_283: system.switch_cpus1 progress event, total committed:216848732, progress insts committed: 11113205, IPC: 01.11021
16891817572437: Event_282: system.switch_cpus0 progress event, total committed:217950637, progress insts committed: 11160424, IPC: 01.11493
16895150905770: Event_282: system.switch_cpus0 progress event, total committed:229265517, progress insts committed: 11314880, IPC: 01.13036
16895150905770: Event_283: system.switch_cpus1 progress event, total committed:227653483, progress insts committed: 10804751, IPC: 01.07939
16895150905770: Event_284: system.switch_cpus2 progress event, total committed:227612423, progress insts committed: 10841030, IPC: 01.08302
16895150905770: Event_285: system.switch_cpus3 progress event, total committed:227114153, progress insts committed: 11398403, IPC: 001.1387
16898484239103: Event_285: system.switch_cpus3 progress event, total committed:237552850, progress insts committed: 10438697, IPC: 01.04283
16898484239103: Event_284: system.switch_cpus2 progress event, total committed:238954753, progress insts committed: 11342330, IPC: 001.1331
16898484239103: Event_283: system.switch_cpus1 progress event, total committed:239406172, progress insts committed: 11752689, IPC: 01.17409
16898484239103: Event_282: system.switch_cpus0 progress event, total committed:239582769, progress insts committed: 10317252, IPC: 01.03069
16901817572436: Event_282: system.switch_cpus0 progress event, total committed:251332865, progress insts committed: 11750096, IPC: 01.17383
16901817572436: Event_283: system.switch_cpus1 progress event, total committed:250169718, progress insts committed: 10763546, IPC: 01.07528
16901817572436: Event_284: system.switch_cpus2 progress event, total committed:249979138, progress insts committed: 11024385, IPC: 01.10134
16901817572436: Event_285: system.switch_cpus3 progress event, total committed:249313524, progress insts committed: 11760674, IPC: 01.17489
16905150905769: Event_285: system.switch_cpus3 progress event, total committed:260276583, progress insts committed: 10963059, IPC: 01.09521
16905150905769: Event_284: system.switch_cpus2 progress event, total committed:261362753, progress insts committed: 11383615, IPC: 01.13722
16905150905769: Event_283: system.switch_cpus1 progress event, total committed:261373773, progress insts committed: 11204055, IPC: 01.11929
16905150905769: Event_282: system.switch_cpus0 progress event, total committed:262640227, progress insts committed: 11307362, IPC: 01.12961
16908484239102: Event_282: system.switch_cpus0 progress event, total committed:273669947, progress insts committed: 11029720, IPC: 01.10187
16908484239102: Event_283: system.switch_cpus1 progress event, total committed:272817718, progress insts committed: 11443945, IPC: 01.14325
16908484239102: Event_284: system.switch_cpus2 progress event, total committed:272700019, progress insts committed: 11337266, IPC: 01.13259
16908484239102: Event_285: system.switch_cpus3 progress event, total committed:271387327, progress insts committed: 11110744, IPC: 01.10996
16911817572435: Event_285: system.switch_cpus3 progress event, total committed:283155996, progress insts committed: 11768669, IPC: 01.17569
16911817572435: Event_284: system.switch_cpus2 progress event, total committed:283308162, progress insts committed: 10608143, IPC: 01.05975
16911817572435: Event_283: system.switch_cpus1 progress event, total committed:283680666, progress insts committed: 10862948, IPC: 01.08521
16911817572435: Event_282: system.switch_cpus0 progress event, total committed:285132543, progress insts committed: 11462596, IPC: 01.14511
16915150905768: Event_282: system.switch_cpus0 progress event, total committed:296036762, progress insts committed: 10904219, IPC: 01.08933
16915150905768: Event_283: system.switch_cpus1 progress event, total committed:295129977, progress insts committed: 11449311, IPC: 01.14379
16915150905768: Event_284: system.switch_cpus2 progress event, total committed:295062393, progress insts committed: 11754231, IPC: 01.17425
16915150905768: Event_285: system.switch_cpus3 progress event, total committed:293958294, progress insts committed: 10802298, IPC: 01.07915
16918484239101: Event_285: system.switch_cpus3 progress event, total committed:305021949, progress insts committed: 11063655, IPC: 01.10526
16918484239101: Event_284: system.switch_cpus2 progress event, total committed:306425894, progress insts committed: 11363501, IPC: 01.13521
16918484239101: Event_283: system.switch_cpus1 progress event, total committed:306700874, progress insts committed: 11570897, IPC: 01.15593
16918484239101: Event_282: system.switch_cpus0 progress event, total committed:307050195, progress insts committed: 11013433, IPC: 01.10024
16921817572434: Event_282: system.switch_cpus0 progress event, total committed:318447186, progress insts committed: 11396991, IPC: 01.13856
16921817572434: Event_283: system.switch_cpus1 progress event, total committed:316981712, progress insts committed: 10280838, IPC: 01.02706
16921817572434: Event_284: system.switch_cpus2 progress event, total committed:316974128, progress insts committed: 10548234, IPC: 01.05377
16921817572434: Event_285: system.switch_cpus3 progress event, total committed:315940833, progress insts committed: 10918884, IPC: 001.0908
16925150905767: Event_285: system.switch_cpus3 progress event, total committed:326997873, progress insts committed: 11057040, IPC: 001.1046
16925150905767: Event_284: system.switch_cpus2 progress event, total committed:328582842, progress insts committed: 11608714, IPC: 01.15971
16925150905767: Event_283: system.switch_cpus1 progress event, total committed:328693161, progress insts committed: 11711449, IPC: 01.16997
16925150905767: Event_282: system.switch_cpus0 progress event, total committed:329548501, progress insts committed: 11101315, IPC: 01.10902
16928484239100: Event_282: system.switch_cpus0 progress event, total committed:340648960, progress insts committed: 11100459, IPC: 01.10894
16928484239100: Event_283: system.switch_cpus1 progress event, total committed:339209575, progress insts committed: 10516414, IPC: 01.05059
16928484239100: Event_284: system.switch_cpus2 progress event, total committed:339140240, progress insts committed: 10557398, IPC: 01.05468
16928484239100: Event_285: system.switch_cpus3 progress event, total committed:338649143, progress insts committed: 11651270, IPC: 01.16396
16931817572433: Event_285: system.switch_cpus3 progress event, total committed:349829040, progress insts committed: 11179897, IPC: 01.11687
16931817572433: Event_284: system.switch_cpus2 progress event, total committed:350676841, progress insts committed: 11536601, IPC: 01.15251
16931817572433: Event_283: system.switch_cpus1 progress event, total committed:350706637, progress insts committed: 11497062, IPC: 01.14856
16931817572433: Event_282: system.switch_cpus0 progress event, total committed:351891340, progress insts committed: 11242380, IPC: 01.12311
16935150905766: Event_282: system.switch_cpus0 progress event, total committed:362675794, progress insts committed: 10784454, IPC: 01.07737
16935150905766: Event_283: system.switch_cpus1 progress event, total committed:362415121, progress insts committed: 11708484, IPC: 01.16968
16935150905766: Event_284: system.switch_cpus2 progress event, total committed:362179999, progress insts committed: 11503158, IPC: 01.14917
16935150905766: Event_285: system.switch_cpus3 progress event, total committed:360734032, progress insts committed: 10904992, IPC: 01.08941
16938484239099: Event_285: system.switch_cpus3 progress event, total committed:372100006, progress insts committed: 11365974, IPC: 01.13546
16938484239099: Event_284: system.switch_cpus2 progress event, total committed:372554513, progress insts committed: 10374514, IPC: 01.03641
16938484239099: Event_283: system.switch_cpus1 progress event, total committed:372714790, progress insts committed: 10299669, IPC: 01.02894
16938484239099: Event_282: system.switch_cpus0 progress event, total committed:373888067, progress insts committed: 11212273, IPC: 01.12011
16941817572432: Event_282: system.switch_cpus0 progress event, total committed:384835305, progress insts committed: 10947238, IPC: 01.09363
16941817572432: Event_283: system.switch_cpus1 progress event, total committed:384332124, progress insts committed: 11617334, IPC: 01.16057
16941817572432: Event_284: system.switch_cpus2 progress event, total committed:384311430, progress insts committed: 11756917, IPC: 01.17452
16941817572432: Event_285: system.switch_cpus3 progress event, total committed:383065256, progress insts committed: 10965250, IPC: 01.09543
16945150905765: Event_285: system.switch_cpus3 progress event, total committed:394430610, progress insts committed: 11365354, IPC: 001.1354
16945150905765: Event_284: system.switch_cpus2 progress event, total committed:395495734, progress insts committed: 11184304, IPC: 01.11731
16945150905765: Event_283: system.switch_cpus1 progress event, total committed:395578119, progress insts committed: 11245995, IPC: 01.12347
16945150905765: Event_282: system.switch_cpus0 progress event, total committed:396366845, progress insts committed: 11531540, IPC: 0001.152
16948484239098: Event_282: system.switch_cpus0 progress event, total committed:408014770, progress insts committed: 11647925, IPC: 01.16363
16948484239098: Event_283: system.switch_cpus1 progress event, total committed:406545978, progress insts committed: 10967859, IPC: 01.09569
16948484239098: Event_284: system.switch_cpus2 progress event, total committed:406369533, progress insts committed: 10873799, IPC: 01.08629
16948484239098: Event_285: system.switch_cpus3 progress event, total committed:406217465, progress insts committed: 11786855, IPC: 01.17751
16951817572431: Event_285: system.switch_cpus3 progress event, total committed:417188611, progress insts committed: 10971146, IPC: 01.09602
16951817572431: Event_284: system.switch_cpus2 progress event, total committed:418147303, progress insts committed: 11777770, IPC: 001.1766
16951817572431: Event_283: system.switch_cpus1 progress event, total committed:418173193, progress insts committed: 11627215, IPC: 01.16156
16951817572431: Event_282: system.switch_cpus0 progress event, total committed:419018616, progress insts committed: 11003846, IPC: 01.09928
16955150905764: Event_282: system.switch_cpus0 progress event, total committed:430152824, progress insts committed: 11134208, IPC: 01.11231
16955150905764: Event_283: system.switch_cpus1 progress event, total committed:429682613, progress insts committed: 11509420, IPC: 01.14979
16955150905764: Event_284: system.switch_cpus2 progress event, total committed:429565779, progress insts committed: 11418476, IPC: 01.14071
16955150905764: Event_285: system.switch_cpus3 progress event, total committed:428156706, progress insts committed: 10968095, IPC: 01.09571
Exiting @ tick 16955327092275 because a thread reached the max instruction count
