
---------- Begin Simulation Statistics ----------
final_tick                               16954300515546                       # Number of ticks from beginning of simulation (restored from checkpoints and never reset)
host_inst_rate                                 101041                       # Simulator instruction rate (inst/s)
host_mem_usage                               17039852                       # Number of bytes of host memory used
host_op_rate                                   174037                       # Simulator op (including micro ops) rate (op/s)
host_seconds                                  9857.99                       # Real time elapsed on the host
host_tick_rate                               14115421                       # Simulator tick rate (ticks/s)
sim_freq                                 1000000000000                       # Frequency of simulated ticks
sim_insts                                   996057372                       # Number of instructions simulated
sim_ops                                    1715656192                       # Number of ops (including micro ops) simulated
sim_seconds                                  0.139150                       # Number of seconds simulated
sim_ticks                                139149647397                       # Number of ticks simulated
system.cpu0.Branches                                2                       # Number of branches fetched
system.cpu0.committedInsts                         19                       # Number of instructions committed
system.cpu0.committedOps                           25                       # Number of ops (including micro ops) committed
system.cpu0.idle_fraction                           0                       # Percentage of idle cycles
system.cpu0.l2bus.snoop_filter.hit_multi_requests          438                       # Number of requests hitting in the snoop filter with multiple (>1) holders of the requested data.
system.cpu0.l2bus.snoop_filter.hit_multi_snoops          126                       # Number of snoops hitting in the snoop filter with multiple (>1) holders of the requested data.
system.cpu0.l2bus.snoop_filter.hit_single_requests      8433867                       # Number of requests hitting in the snoop filter with a single holder of the requested data.
system.cpu0.l2bus.snoop_filter.hit_single_snoops         2569                       # Number of snoops hitting in the snoop filter with a single holder of the requested data.
system.cpu0.l2bus.snoop_filter.tot_requests     16810106                       # Total number of requests made to the snoop filter.
system.cpu0.l2bus.snoop_filter.tot_snoops         2695                       # Total number of snoops made to the snoop filter.
system.cpu0.mmucache.mmubus.snoop_filter.hit_multi_requests            0                       # Number of requests hitting in the snoop filter with multiple (>1) holders of the requested data.
system.cpu0.mmucache.mmubus.snoop_filter.hit_multi_snoops            0                       # Number of snoops hitting in the snoop filter with multiple (>1) holders of the requested data.
system.cpu0.mmucache.mmubus.snoop_filter.hit_single_requests            0                       # Number of requests hitting in the snoop filter with a single holder of the requested data.
system.cpu0.mmucache.mmubus.snoop_filter.hit_single_snoops            0                       # Number of snoops hitting in the snoop filter with a single holder of the requested data.
system.cpu0.mmucache.mmubus.snoop_filter.tot_requests            0                       # Total number of requests made to the snoop filter.
system.cpu0.mmucache.mmubus.snoop_filter.tot_snoops            0                       # Total number of snoops made to the snoop filter.
system.cpu0.not_idle_fraction                       1                       # Percentage of non-idle cycles
system.cpu0.numCycles                              30                       # number of cpu cycles simulated
system.cpu0.numWorkItemsCompleted                   0                       # number of work items this cpu completed
system.cpu0.numWorkItemsStarted                     0                       # number of work items this cpu started
system.cpu0.num_busy_cycles                        30                       # Number of busy cycles
system.cpu0.num_cc_register_reads                  13                       # number of times the CC registers were read
system.cpu0.num_cc_register_writes                 12                       # number of times the CC registers were written
system.cpu0.num_conditional_control_insts            2                       # number of instructions that are conditional controls
system.cpu0.num_fp_alu_accesses                     0                       # Number of float alu accesses
system.cpu0.num_fp_insts                            0                       # number of float instructions
system.cpu0.num_fp_register_reads                   0                       # number of times the floating registers were read
system.cpu0.num_fp_register_writes                  0                       # number of times the floating registers were written
system.cpu0.num_func_calls                          0                       # number of times a function call or return occured
system.cpu0.num_idle_cycles                         0                       # Number of idle cycles
system.cpu0.num_int_alu_accesses                   25                       # Number of integer alu accesses
system.cpu0.num_int_insts                          25                       # number of integer instructions
system.cpu0.num_int_register_reads                 59                       # number of times the integer registers were read
system.cpu0.num_int_register_writes                20                       # number of times the integer registers were written
system.cpu0.num_load_insts                          7                       # Number of load instructions
system.cpu0.num_mem_refs                           10                       # number of memory refs
system.cpu0.num_store_insts                         3                       # Number of store instructions
system.cpu0.num_vec_alu_accesses                    0                       # Number of vector alu accesses
system.cpu0.num_vec_insts                           0                       # number of vector instructions
system.cpu0.num_vec_register_reads                  0                       # number of times the vector registers were read
system.cpu0.num_vec_register_writes                 0                       # number of times the vector registers were written
system.cpu0.op_class::No_OpClass                    0      0.00%      0.00% # Class of executed instruction
system.cpu0.op_class::IntAlu                       15     60.00%     60.00% # Class of executed instruction
system.cpu0.op_class::IntMult                       0      0.00%     60.00% # Class of executed instruction
system.cpu0.op_class::IntDiv                        0      0.00%     60.00% # Class of executed instruction
system.cpu0.op_class::FloatAdd                      0      0.00%     60.00% # Class of executed instruction
system.cpu0.op_class::FloatCmp                      0      0.00%     60.00% # Class of executed instruction
system.cpu0.op_class::FloatCvt                      0      0.00%     60.00% # Class of executed instruction
system.cpu0.op_class::FloatMult                     0      0.00%     60.00% # Class of executed instruction
system.cpu0.op_class::FloatMultAcc                  0      0.00%     60.00% # Class of executed instruction
system.cpu0.op_class::FloatDiv                      0      0.00%     60.00% # Class of executed instruction
system.cpu0.op_class::FloatMisc                     0      0.00%     60.00% # Class of executed instruction
system.cpu0.op_class::FloatSqrt                     0      0.00%     60.00% # Class of executed instruction
system.cpu0.op_class::SimdAdd                       0      0.00%     60.00% # Class of executed instruction
system.cpu0.op_class::SimdAddAcc                    0      0.00%     60.00% # Class of executed instruction
system.cpu0.op_class::SimdAlu                       0      0.00%     60.00% # Class of executed instruction
system.cpu0.op_class::SimdCmp                       0      0.00%     60.00% # Class of executed instruction
system.cpu0.op_class::SimdCvt                       0      0.00%     60.00% # Class of executed instruction
system.cpu0.op_class::SimdMisc                      0      0.00%     60.00% # Class of executed instruction
system.cpu0.op_class::SimdMult                      0      0.00%     60.00% # Class of executed instruction
system.cpu0.op_class::SimdMultAcc                   0      0.00%     60.00% # Class of executed instruction
system.cpu0.op_class::SimdShift                     0      0.00%     60.00% # Class of executed instruction
system.cpu0.op_class::SimdShiftAcc                  0      0.00%     60.00% # Class of executed instruction
system.cpu0.op_class::SimdDiv                       0      0.00%     60.00% # Class of executed instruction
system.cpu0.op_class::SimdSqrt                      0      0.00%     60.00% # Class of executed instruction
system.cpu0.op_class::SimdFloatAdd                  0      0.00%     60.00% # Class of executed instruction
system.cpu0.op_class::SimdFloatAlu                  0      0.00%     60.00% # Class of executed instruction
system.cpu0.op_class::SimdFloatCmp                  0      0.00%     60.00% # Class of executed instruction
system.cpu0.op_class::SimdFloatCvt                  0      0.00%     60.00% # Class of executed instruction
system.cpu0.op_class::SimdFloatDiv                  0      0.00%     60.00% # Class of executed instruction
system.cpu0.op_class::SimdFloatMisc                 0      0.00%     60.00% # Class of executed instruction
system.cpu0.op_class::SimdFloatMult                 0      0.00%     60.00% # Class of executed instruction
system.cpu0.op_class::SimdFloatMultAcc              0      0.00%     60.00% # Class of executed instruction
system.cpu0.op_class::SimdFloatSqrt                 0      0.00%     60.00% # Class of executed instruction
system.cpu0.op_class::SimdReduceAdd                 0      0.00%     60.00% # Class of executed instruction
system.cpu0.op_class::SimdReduceAlu                 0      0.00%     60.00% # Class of executed instruction
system.cpu0.op_class::SimdReduceCmp                 0      0.00%     60.00% # Class of executed instruction
system.cpu0.op_class::SimdFloatReduceAdd            0      0.00%     60.00% # Class of executed instruction
system.cpu0.op_class::SimdFloatReduceCmp            0      0.00%     60.00% # Class of executed instruction
system.cpu0.op_class::SimdAes                       0      0.00%     60.00% # Class of executed instruction
system.cpu0.op_class::SimdAesMix                    0      0.00%     60.00% # Class of executed instruction
system.cpu0.op_class::SimdSha1Hash                  0      0.00%     60.00% # Class of executed instruction
system.cpu0.op_class::SimdSha1Hash2                 0      0.00%     60.00% # Class of executed instruction
system.cpu0.op_class::SimdSha256Hash                0      0.00%     60.00% # Class of executed instruction
system.cpu0.op_class::SimdSha256Hash2               0      0.00%     60.00% # Class of executed instruction
system.cpu0.op_class::SimdShaSigma2                 0      0.00%     60.00% # Class of executed instruction
system.cpu0.op_class::SimdShaSigma3                 0      0.00%     60.00% # Class of executed instruction
system.cpu0.op_class::SimdPredAlu                   0      0.00%     60.00% # Class of executed instruction
system.cpu0.op_class::MemRead                       7     28.00%     88.00% # Class of executed instruction
system.cpu0.op_class::MemWrite                      3     12.00%    100.00% # Class of executed instruction
system.cpu0.op_class::FloatMemRead                  0      0.00%    100.00% # Class of executed instruction
system.cpu0.op_class::FloatMemWrite                 0      0.00%    100.00% # Class of executed instruction
system.cpu0.op_class::IprAccess                     0      0.00%    100.00% # Class of executed instruction
system.cpu0.op_class::InstPrefetch                  0      0.00%    100.00% # Class of executed instruction
system.cpu0.op_class::total                        25                       # Class of executed instruction
system.cpu0.workload.numSyscalls                    0                       # Number of system calls
system.cpu1.Branches                                2                       # Number of branches fetched
system.cpu1.committedInsts                         19                       # Number of instructions committed
system.cpu1.committedOps                           25                       # Number of ops (including micro ops) committed
system.cpu1.idle_fraction                           0                       # Percentage of idle cycles
system.cpu1.l2bus.snoop_filter.hit_multi_requests          467                       # Number of requests hitting in the snoop filter with multiple (>1) holders of the requested data.
system.cpu1.l2bus.snoop_filter.hit_multi_snoops          119                       # Number of snoops hitting in the snoop filter with multiple (>1) holders of the requested data.
system.cpu1.l2bus.snoop_filter.hit_single_requests      8409662                       # Number of requests hitting in the snoop filter with a single holder of the requested data.
system.cpu1.l2bus.snoop_filter.hit_single_snoops         3333                       # Number of snoops hitting in the snoop filter with a single holder of the requested data.
system.cpu1.l2bus.snoop_filter.tot_requests     16757868                       # Total number of requests made to the snoop filter.
system.cpu1.l2bus.snoop_filter.tot_snoops         3452                       # Total number of snoops made to the snoop filter.
system.cpu1.mmucache.mmubus.snoop_filter.hit_multi_requests            0                       # Number of requests hitting in the snoop filter with multiple (>1) holders of the requested data.
system.cpu1.mmucache.mmubus.snoop_filter.hit_multi_snoops            0                       # Number of snoops hitting in the snoop filter with multiple (>1) holders of the requested data.
system.cpu1.mmucache.mmubus.snoop_filter.hit_single_requests            0                       # Number of requests hitting in the snoop filter with a single holder of the requested data.
system.cpu1.mmucache.mmubus.snoop_filter.hit_single_snoops            0                       # Number of snoops hitting in the snoop filter with a single holder of the requested data.
system.cpu1.mmucache.mmubus.snoop_filter.tot_requests            0                       # Total number of requests made to the snoop filter.
system.cpu1.mmucache.mmubus.snoop_filter.tot_snoops            0                       # Total number of snoops made to the snoop filter.
system.cpu1.not_idle_fraction                       1                       # Percentage of non-idle cycles
system.cpu1.numCycles                              30                       # number of cpu cycles simulated
system.cpu1.numWorkItemsCompleted                   0                       # number of work items this cpu completed
system.cpu1.numWorkItemsStarted                     0                       # number of work items this cpu started
system.cpu1.num_busy_cycles                        30                       # Number of busy cycles
system.cpu1.num_cc_register_reads                  13                       # number of times the CC registers were read
system.cpu1.num_cc_register_writes                 12                       # number of times the CC registers were written
system.cpu1.num_conditional_control_insts            2                       # number of instructions that are conditional controls
system.cpu1.num_fp_alu_accesses                     0                       # Number of float alu accesses
system.cpu1.num_fp_insts                            0                       # number of float instructions
system.cpu1.num_fp_register_reads                   0                       # number of times the floating registers were read
system.cpu1.num_fp_register_writes                  0                       # number of times the floating registers were written
system.cpu1.num_func_calls                          0                       # number of times a function call or return occured
system.cpu1.num_idle_cycles                         0                       # Number of idle cycles
system.cpu1.num_int_alu_accesses                   25                       # Number of integer alu accesses
system.cpu1.num_int_insts                          25                       # number of integer instructions
system.cpu1.num_int_register_reads                 59                       # number of times the integer registers were read
system.cpu1.num_int_register_writes                20                       # number of times the integer registers were written
system.cpu1.num_load_insts                          7                       # Number of load instructions
system.cpu1.num_mem_refs                           10                       # number of memory refs
system.cpu1.num_store_insts                         3                       # Number of store instructions
system.cpu1.num_vec_alu_accesses                    0                       # Number of vector alu accesses
system.cpu1.num_vec_insts                           0                       # number of vector instructions
system.cpu1.num_vec_register_reads                  0                       # number of times the vector registers were read
system.cpu1.num_vec_register_writes                 0                       # number of times the vector registers were written
system.cpu1.op_class::No_OpClass                    0      0.00%      0.00% # Class of executed instruction
system.cpu1.op_class::IntAlu                       15     60.00%     60.00% # Class of executed instruction
system.cpu1.op_class::IntMult                       0      0.00%     60.00% # Class of executed instruction
system.cpu1.op_class::IntDiv                        0      0.00%     60.00% # Class of executed instruction
system.cpu1.op_class::FloatAdd                      0      0.00%     60.00% # Class of executed instruction
system.cpu1.op_class::FloatCmp                      0      0.00%     60.00% # Class of executed instruction
system.cpu1.op_class::FloatCvt                      0      0.00%     60.00% # Class of executed instruction
system.cpu1.op_class::FloatMult                     0      0.00%     60.00% # Class of executed instruction
system.cpu1.op_class::FloatMultAcc                  0      0.00%     60.00% # Class of executed instruction
system.cpu1.op_class::FloatDiv                      0      0.00%     60.00% # Class of executed instruction
system.cpu1.op_class::FloatMisc                     0      0.00%     60.00% # Class of executed instruction
system.cpu1.op_class::FloatSqrt                     0      0.00%     60.00% # Class of executed instruction
system.cpu1.op_class::SimdAdd                       0      0.00%     60.00% # Class of executed instruction
system.cpu1.op_class::SimdAddAcc                    0      0.00%     60.00% # Class of executed instruction
system.cpu1.op_class::SimdAlu                       0      0.00%     60.00% # Class of executed instruction
system.cpu1.op_class::SimdCmp                       0      0.00%     60.00% # Class of executed instruction
system.cpu1.op_class::SimdCvt                       0      0.00%     60.00% # Class of executed instruction
system.cpu1.op_class::SimdMisc                      0      0.00%     60.00% # Class of executed instruction
system.cpu1.op_class::SimdMult                      0      0.00%     60.00% # Class of executed instruction
system.cpu1.op_class::SimdMultAcc                   0      0.00%     60.00% # Class of executed instruction
system.cpu1.op_class::SimdShift                     0      0.00%     60.00% # Class of executed instruction
system.cpu1.op_class::SimdShiftAcc                  0      0.00%     60.00% # Class of executed instruction
system.cpu1.op_class::SimdDiv                       0      0.00%     60.00% # Class of executed instruction
system.cpu1.op_class::SimdSqrt                      0      0.00%     60.00% # Class of executed instruction
system.cpu1.op_class::SimdFloatAdd                  0      0.00%     60.00% # Class of executed instruction
system.cpu1.op_class::SimdFloatAlu                  0      0.00%     60.00% # Class of executed instruction
system.cpu1.op_class::SimdFloatCmp                  0      0.00%     60.00% # Class of executed instruction
system.cpu1.op_class::SimdFloatCvt                  0      0.00%     60.00% # Class of executed instruction
system.cpu1.op_class::SimdFloatDiv                  0      0.00%     60.00% # Class of executed instruction
system.cpu1.op_class::SimdFloatMisc                 0      0.00%     60.00% # Class of executed instruction
system.cpu1.op_class::SimdFloatMult                 0      0.00%     60.00% # Class of executed instruction
system.cpu1.op_class::SimdFloatMultAcc              0      0.00%     60.00% # Class of executed instruction
system.cpu1.op_class::SimdFloatSqrt                 0      0.00%     60.00% # Class of executed instruction
system.cpu1.op_class::SimdReduceAdd                 0      0.00%     60.00% # Class of executed instruction
system.cpu1.op_class::SimdReduceAlu                 0      0.00%     60.00% # Class of executed instruction
system.cpu1.op_class::SimdReduceCmp                 0      0.00%     60.00% # Class of executed instruction
system.cpu1.op_class::SimdFloatReduceAdd            0      0.00%     60.00% # Class of executed instruction
system.cpu1.op_class::SimdFloatReduceCmp            0      0.00%     60.00% # Class of executed instruction
system.cpu1.op_class::SimdAes                       0      0.00%     60.00% # Class of executed instruction
system.cpu1.op_class::SimdAesMix                    0      0.00%     60.00% # Class of executed instruction
system.cpu1.op_class::SimdSha1Hash                  0      0.00%     60.00% # Class of executed instruction
system.cpu1.op_class::SimdSha1Hash2                 0      0.00%     60.00% # Class of executed instruction
system.cpu1.op_class::SimdSha256Hash                0      0.00%     60.00% # Class of executed instruction
system.cpu1.op_class::SimdSha256Hash2               0      0.00%     60.00% # Class of executed instruction
system.cpu1.op_class::SimdShaSigma2                 0      0.00%     60.00% # Class of executed instruction
system.cpu1.op_class::SimdShaSigma3                 0      0.00%     60.00% # Class of executed instruction
system.cpu1.op_class::SimdPredAlu                   0      0.00%     60.00% # Class of executed instruction
system.cpu1.op_class::MemRead                       7     28.00%     88.00% # Class of executed instruction
system.cpu1.op_class::MemWrite                      3     12.00%    100.00% # Class of executed instruction
system.cpu1.op_class::FloatMemRead                  0      0.00%    100.00% # Class of executed instruction
system.cpu1.op_class::FloatMemWrite                 0      0.00%    100.00% # Class of executed instruction
system.cpu1.op_class::IprAccess                     0      0.00%    100.00% # Class of executed instruction
system.cpu1.op_class::InstPrefetch                  0      0.00%    100.00% # Class of executed instruction
system.cpu1.op_class::total                        25                       # Class of executed instruction
system.cpu1.workload.numSyscalls                    0                       # Number of system calls
system.cpu2.Branches                                2                       # Number of branches fetched
system.cpu2.committedInsts                         19                       # Number of instructions committed
system.cpu2.committedOps                           25                       # Number of ops (including micro ops) committed
system.cpu2.idle_fraction                           0                       # Percentage of idle cycles
system.cpu2.l2bus.snoop_filter.hit_multi_requests          438                       # Number of requests hitting in the snoop filter with multiple (>1) holders of the requested data.
system.cpu2.l2bus.snoop_filter.hit_multi_snoops          125                       # Number of snoops hitting in the snoop filter with multiple (>1) holders of the requested data.
system.cpu2.l2bus.snoop_filter.hit_single_requests      8467890                       # Number of requests hitting in the snoop filter with a single holder of the requested data.
system.cpu2.l2bus.snoop_filter.hit_single_snoops         2573                       # Number of snoops hitting in the snoop filter with a single holder of the requested data.
system.cpu2.l2bus.snoop_filter.tot_requests     16877903                       # Total number of requests made to the snoop filter.
system.cpu2.l2bus.snoop_filter.tot_snoops         2698                       # Total number of snoops made to the snoop filter.
system.cpu2.mmucache.mmubus.snoop_filter.hit_multi_requests            0                       # Number of requests hitting in the snoop filter with multiple (>1) holders of the requested data.
system.cpu2.mmucache.mmubus.snoop_filter.hit_multi_snoops            0                       # Number of snoops hitting in the snoop filter with multiple (>1) holders of the requested data.
system.cpu2.mmucache.mmubus.snoop_filter.hit_single_requests            0                       # Number of requests hitting in the snoop filter with a single holder of the requested data.
system.cpu2.mmucache.mmubus.snoop_filter.hit_single_snoops            0                       # Number of snoops hitting in the snoop filter with a single holder of the requested data.
system.cpu2.mmucache.mmubus.snoop_filter.tot_requests            0                       # Total number of requests made to the snoop filter.
system.cpu2.mmucache.mmubus.snoop_filter.tot_snoops            0                       # Total number of snoops made to the snoop filter.
system.cpu2.not_idle_fraction                       1                       # Percentage of non-idle cycles
system.cpu2.numCycles                              30                       # number of cpu cycles simulated
system.cpu2.numWorkItemsCompleted                   0                       # number of work items this cpu completed
system.cpu2.numWorkItemsStarted                     0                       # number of work items this cpu started
system.cpu2.num_busy_cycles                        30                       # Number of busy cycles
system.cpu2.num_cc_register_reads                  13                       # number of times the CC registers were read
system.cpu2.num_cc_register_writes                 12                       # number of times the CC registers were written
system.cpu2.num_conditional_control_insts            2                       # number of instructions that are conditional controls
system.cpu2.num_fp_alu_accesses                     0                       # Number of float alu accesses
system.cpu2.num_fp_insts                            0                       # number of float instructions
system.cpu2.num_fp_register_reads                   0                       # number of times the floating registers were read
system.cpu2.num_fp_register_writes                  0                       # number of times the floating registers were written
system.cpu2.num_func_calls                          0                       # number of times a function call or return occured
system.cpu2.num_idle_cycles                         0                       # Number of idle cycles
system.cpu2.num_int_alu_accesses                   25                       # Number of integer alu accesses
system.cpu2.num_int_insts                          25                       # number of integer instructions
system.cpu2.num_int_register_reads                 59                       # number of times the integer registers were read
system.cpu2.num_int_register_writes                20                       # number of times the integer registers were written
system.cpu2.num_load_insts                          7                       # Number of load instructions
system.cpu2.num_mem_refs                           10                       # number of memory refs
system.cpu2.num_store_insts                         3                       # Number of store instructions
system.cpu2.num_vec_alu_accesses                    0                       # Number of vector alu accesses
system.cpu2.num_vec_insts                           0                       # number of vector instructions
system.cpu2.num_vec_register_reads                  0                       # number of times the vector registers were read
system.cpu2.num_vec_register_writes                 0                       # number of times the vector registers were written
system.cpu2.op_class::No_OpClass                    0      0.00%      0.00% # Class of executed instruction
system.cpu2.op_class::IntAlu                       15     60.00%     60.00% # Class of executed instruction
system.cpu2.op_class::IntMult                       0      0.00%     60.00% # Class of executed instruction
system.cpu2.op_class::IntDiv                        0      0.00%     60.00% # Class of executed instruction
system.cpu2.op_class::FloatAdd                      0      0.00%     60.00% # Class of executed instruction
system.cpu2.op_class::FloatCmp                      0      0.00%     60.00% # Class of executed instruction
system.cpu2.op_class::FloatCvt                      0      0.00%     60.00% # Class of executed instruction
system.cpu2.op_class::FloatMult                     0      0.00%     60.00% # Class of executed instruction
system.cpu2.op_class::FloatMultAcc                  0      0.00%     60.00% # Class of executed instruction
system.cpu2.op_class::FloatDiv                      0      0.00%     60.00% # Class of executed instruction
system.cpu2.op_class::FloatMisc                     0      0.00%     60.00% # Class of executed instruction
system.cpu2.op_class::FloatSqrt                     0      0.00%     60.00% # Class of executed instruction
system.cpu2.op_class::SimdAdd                       0      0.00%     60.00% # Class of executed instruction
system.cpu2.op_class::SimdAddAcc                    0      0.00%     60.00% # Class of executed instruction
system.cpu2.op_class::SimdAlu                       0      0.00%     60.00% # Class of executed instruction
system.cpu2.op_class::SimdCmp                       0      0.00%     60.00% # Class of executed instruction
system.cpu2.op_class::SimdCvt                       0      0.00%     60.00% # Class of executed instruction
system.cpu2.op_class::SimdMisc                      0      0.00%     60.00% # Class of executed instruction
system.cpu2.op_class::SimdMult                      0      0.00%     60.00% # Class of executed instruction
system.cpu2.op_class::SimdMultAcc                   0      0.00%     60.00% # Class of executed instruction
system.cpu2.op_class::SimdShift                     0      0.00%     60.00% # Class of executed instruction
system.cpu2.op_class::SimdShiftAcc                  0      0.00%     60.00% # Class of executed instruction
system.cpu2.op_class::SimdDiv                       0      0.00%     60.00% # Class of executed instruction
system.cpu2.op_class::SimdSqrt                      0      0.00%     60.00% # Class of executed instruction
system.cpu2.op_class::SimdFloatAdd                  0      0.00%     60.00% # Class of executed instruction
system.cpu2.op_class::SimdFloatAlu                  0      0.00%     60.00% # Class of executed instruction
system.cpu2.op_class::SimdFloatCmp                  0      0.00%     60.00% # Class of executed instruction
system.cpu2.op_class::SimdFloatCvt                  0      0.00%     60.00% # Class of executed instruction
system.cpu2.op_class::SimdFloatDiv                  0      0.00%     60.00% # Class of executed instruction
system.cpu2.op_class::SimdFloatMisc                 0      0.00%     60.00% # Class of executed instruction
system.cpu2.op_class::SimdFloatMult                 0      0.00%     60.00% # Class of executed instruction
system.cpu2.op_class::SimdFloatMultAcc              0      0.00%     60.00% # Class of executed instruction
system.cpu2.op_class::SimdFloatSqrt                 0      0.00%     60.00% # Class of executed instruction
system.cpu2.op_class::SimdReduceAdd                 0      0.00%     60.00% # Class of executed instruction
system.cpu2.op_class::SimdReduceAlu                 0      0.00%     60.00% # Class of executed instruction
system.cpu2.op_class::SimdReduceCmp                 0      0.00%     60.00% # Class of executed instruction
system.cpu2.op_class::SimdFloatReduceAdd            0      0.00%     60.00% # Class of executed instruction
system.cpu2.op_class::SimdFloatReduceCmp            0      0.00%     60.00% # Class of executed instruction
system.cpu2.op_class::SimdAes                       0      0.00%     60.00% # Class of executed instruction
system.cpu2.op_class::SimdAesMix                    0      0.00%     60.00% # Class of executed instruction
system.cpu2.op_class::SimdSha1Hash                  0      0.00%     60.00% # Class of executed instruction
system.cpu2.op_class::SimdSha1Hash2                 0      0.00%     60.00% # Class of executed instruction
system.cpu2.op_class::SimdSha256Hash                0      0.00%     60.00% # Class of executed instruction
system.cpu2.op_class::SimdSha256Hash2               0      0.00%     60.00% # Class of executed instruction
system.cpu2.op_class::SimdShaSigma2                 0      0.00%     60.00% # Class of executed instruction
system.cpu2.op_class::SimdShaSigma3                 0      0.00%     60.00% # Class of executed instruction
system.cpu2.op_class::SimdPredAlu                   0      0.00%     60.00% # Class of executed instruction
system.cpu2.op_class::MemRead                       7     28.00%     88.00% # Class of executed instruction
system.cpu2.op_class::MemWrite                      3     12.00%    100.00% # Class of executed instruction
system.cpu2.op_class::FloatMemRead                  0      0.00%    100.00% # Class of executed instruction
system.cpu2.op_class::FloatMemWrite                 0      0.00%    100.00% # Class of executed instruction
system.cpu2.op_class::IprAccess                     0      0.00%    100.00% # Class of executed instruction
system.cpu2.op_class::InstPrefetch                  0      0.00%    100.00% # Class of executed instruction
system.cpu2.op_class::total                        25                       # Class of executed instruction
system.cpu2.workload.numSyscalls                    0                       # Number of system calls
system.cpu3.Branches                                2                       # Number of branches fetched
system.cpu3.committedInsts                         19                       # Number of instructions committed
system.cpu3.committedOps                           25                       # Number of ops (including micro ops) committed
system.cpu3.idle_fraction                           0                       # Percentage of idle cycles
system.cpu3.l2bus.snoop_filter.hit_multi_requests          343                       # Number of requests hitting in the snoop filter with multiple (>1) holders of the requested data.
system.cpu3.l2bus.snoop_filter.hit_multi_snoops           47                       # Number of snoops hitting in the snoop filter with multiple (>1) holders of the requested data.
system.cpu3.l2bus.snoop_filter.hit_single_requests      8410483                       # Number of requests hitting in the snoop filter with a single holder of the requested data.
system.cpu3.l2bus.snoop_filter.hit_single_snoops         3332                       # Number of snoops hitting in the snoop filter with a single holder of the requested data.
system.cpu3.l2bus.snoop_filter.tot_requests     16759438                       # Total number of requests made to the snoop filter.
system.cpu3.l2bus.snoop_filter.tot_snoops         3379                       # Total number of snoops made to the snoop filter.
system.cpu3.mmucache.mmubus.snoop_filter.hit_multi_requests            0                       # Number of requests hitting in the snoop filter with multiple (>1) holders of the requested data.
system.cpu3.mmucache.mmubus.snoop_filter.hit_multi_snoops            0                       # Number of snoops hitting in the snoop filter with multiple (>1) holders of the requested data.
system.cpu3.mmucache.mmubus.snoop_filter.hit_single_requests            0                       # Number of requests hitting in the snoop filter with a single holder of the requested data.
system.cpu3.mmucache.mmubus.snoop_filter.hit_single_snoops            0                       # Number of snoops hitting in the snoop filter with a single holder of the requested data.
system.cpu3.mmucache.mmubus.snoop_filter.tot_requests            0                       # Total number of requests made to the snoop filter.
system.cpu3.mmucache.mmubus.snoop_filter.tot_snoops            0                       # Total number of snoops made to the snoop filter.
system.cpu3.not_idle_fraction                       1                       # Percentage of non-idle cycles
system.cpu3.numCycles                              30                       # number of cpu cycles simulated
system.cpu3.numWorkItemsCompleted                   0                       # number of work items this cpu completed
system.cpu3.numWorkItemsStarted                     0                       # number of work items this cpu started
system.cpu3.num_busy_cycles                        30                       # Number of busy cycles
system.cpu3.num_cc_register_reads                  13                       # number of times the CC registers were read
system.cpu3.num_cc_register_writes                 12                       # number of times the CC registers were written
system.cpu3.num_conditional_control_insts            2                       # number of instructions that are conditional controls
system.cpu3.num_fp_alu_accesses                     0                       # Number of float alu accesses
system.cpu3.num_fp_insts                            0                       # number of float instructions
system.cpu3.num_fp_register_reads                   0                       # number of times the floating registers were read
system.cpu3.num_fp_register_writes                  0                       # number of times the floating registers were written
system.cpu3.num_func_calls                          0                       # number of times a function call or return occured
system.cpu3.num_idle_cycles                         0                       # Number of idle cycles
system.cpu3.num_int_alu_accesses                   25                       # Number of integer alu accesses
system.cpu3.num_int_insts                          25                       # number of integer instructions
system.cpu3.num_int_register_reads                 59                       # number of times the integer registers were read
system.cpu3.num_int_register_writes                20                       # number of times the integer registers were written
system.cpu3.num_load_insts                          7                       # Number of load instructions
system.cpu3.num_mem_refs                           10                       # number of memory refs
system.cpu3.num_store_insts                         3                       # Number of store instructions
system.cpu3.num_vec_alu_accesses                    0                       # Number of vector alu accesses
system.cpu3.num_vec_insts                           0                       # number of vector instructions
system.cpu3.num_vec_register_reads                  0                       # number of times the vector registers were read
system.cpu3.num_vec_register_writes                 0                       # number of times the vector registers were written
system.cpu3.op_class::No_OpClass                    0      0.00%      0.00% # Class of executed instruction
system.cpu3.op_class::IntAlu                       15     60.00%     60.00% # Class of executed instruction
system.cpu3.op_class::IntMult                       0      0.00%     60.00% # Class of executed instruction
system.cpu3.op_class::IntDiv                        0      0.00%     60.00% # Class of executed instruction
system.cpu3.op_class::FloatAdd                      0      0.00%     60.00% # Class of executed instruction
system.cpu3.op_class::FloatCmp                      0      0.00%     60.00% # Class of executed instruction
system.cpu3.op_class::FloatCvt                      0      0.00%     60.00% # Class of executed instruction
system.cpu3.op_class::FloatMult                     0      0.00%     60.00% # Class of executed instruction
system.cpu3.op_class::FloatMultAcc                  0      0.00%     60.00% # Class of executed instruction
system.cpu3.op_class::FloatDiv                      0      0.00%     60.00% # Class of executed instruction
system.cpu3.op_class::FloatMisc                     0      0.00%     60.00% # Class of executed instruction
system.cpu3.op_class::FloatSqrt                     0      0.00%     60.00% # Class of executed instruction
system.cpu3.op_class::SimdAdd                       0      0.00%     60.00% # Class of executed instruction
system.cpu3.op_class::SimdAddAcc                    0      0.00%     60.00% # Class of executed instruction
system.cpu3.op_class::SimdAlu                       0      0.00%     60.00% # Class of executed instruction
system.cpu3.op_class::SimdCmp                       0      0.00%     60.00% # Class of executed instruction
system.cpu3.op_class::SimdCvt                       0      0.00%     60.00% # Class of executed instruction
system.cpu3.op_class::SimdMisc                      0      0.00%     60.00% # Class of executed instruction
system.cpu3.op_class::SimdMult                      0      0.00%     60.00% # Class of executed instruction
system.cpu3.op_class::SimdMultAcc                   0      0.00%     60.00% # Class of executed instruction
system.cpu3.op_class::SimdShift                     0      0.00%     60.00% # Class of executed instruction
system.cpu3.op_class::SimdShiftAcc                  0      0.00%     60.00% # Class of executed instruction
system.cpu3.op_class::SimdDiv                       0      0.00%     60.00% # Class of executed instruction
system.cpu3.op_class::SimdSqrt                      0      0.00%     60.00% # Class of executed instruction
system.cpu3.op_class::SimdFloatAdd                  0      0.00%     60.00% # Class of executed instruction
system.cpu3.op_class::SimdFloatAlu                  0      0.00%     60.00% # Class of executed instruction
system.cpu3.op_class::SimdFloatCmp                  0      0.00%     60.00% # Class of executed instruction
system.cpu3.op_class::SimdFloatCvt                  0      0.00%     60.00% # Class of executed instruction
system.cpu3.op_class::SimdFloatDiv                  0      0.00%     60.00% # Class of executed instruction
system.cpu3.op_class::SimdFloatMisc                 0      0.00%     60.00% # Class of executed instruction
system.cpu3.op_class::SimdFloatMult                 0      0.00%     60.00% # Class of executed instruction
system.cpu3.op_class::SimdFloatMultAcc              0      0.00%     60.00% # Class of executed instruction
system.cpu3.op_class::SimdFloatSqrt                 0      0.00%     60.00% # Class of executed instruction
system.cpu3.op_class::SimdReduceAdd                 0      0.00%     60.00% # Class of executed instruction
system.cpu3.op_class::SimdReduceAlu                 0      0.00%     60.00% # Class of executed instruction
system.cpu3.op_class::SimdReduceCmp                 0      0.00%     60.00% # Class of executed instruction
system.cpu3.op_class::SimdFloatReduceAdd            0      0.00%     60.00% # Class of executed instruction
system.cpu3.op_class::SimdFloatReduceCmp            0      0.00%     60.00% # Class of executed instruction
system.cpu3.op_class::SimdAes                       0      0.00%     60.00% # Class of executed instruction
system.cpu3.op_class::SimdAesMix                    0      0.00%     60.00% # Class of executed instruction
system.cpu3.op_class::SimdSha1Hash                  0      0.00%     60.00% # Class of executed instruction
system.cpu3.op_class::SimdSha1Hash2                 0      0.00%     60.00% # Class of executed instruction
system.cpu3.op_class::SimdSha256Hash                0      0.00%     60.00% # Class of executed instruction
system.cpu3.op_class::SimdSha256Hash2               0      0.00%     60.00% # Class of executed instruction
system.cpu3.op_class::SimdShaSigma2                 0      0.00%     60.00% # Class of executed instruction
system.cpu3.op_class::SimdShaSigma3                 0      0.00%     60.00% # Class of executed instruction
system.cpu3.op_class::SimdPredAlu                   0      0.00%     60.00% # Class of executed instruction
system.cpu3.op_class::MemRead                       7     28.00%     88.00% # Class of executed instruction
system.cpu3.op_class::MemWrite                      3     12.00%    100.00% # Class of executed instruction
system.cpu3.op_class::FloatMemRead                  0      0.00%    100.00% # Class of executed instruction
system.cpu3.op_class::FloatMemWrite                 0      0.00%    100.00% # Class of executed instruction
system.cpu3.op_class::IprAccess                     0      0.00%    100.00% # Class of executed instruction
system.cpu3.op_class::InstPrefetch                  0      0.00%    100.00% # Class of executed instruction
system.cpu3.op_class::total                        25                       # Class of executed instruction
system.cpu3.workload.numSyscalls                    0                       # Number of system calls
system.l3bus.snoop_filter.hit_multi_requests            0                       # Number of requests hitting in the snoop filter with multiple (>1) holders of the requested data.
system.l3bus.snoop_filter.hit_multi_snoops            0                       # Number of snoops hitting in the snoop filter with multiple (>1) holders of the requested data.
system.l3bus.snoop_filter.hit_single_requests     18076552                       # Number of requests hitting in the snoop filter with a single holder of the requested data.
system.l3bus.snoop_filter.hit_single_snoops            0                       # Number of snoops hitting in the snoop filter with a single holder of the requested data.
system.l3bus.snoop_filter.tot_requests       36167195                       # Total number of requests made to the snoop filter.
system.l3bus.snoop_filter.tot_snoops                0                       # Total number of snoops made to the snoop filter.
system.membus.snoop_filter.hit_multi_requests            0                       # Number of requests hitting in the snoop filter with multiple (>1) holders of the requested data.
system.membus.snoop_filter.hit_multi_snoops            0                       # Number of snoops hitting in the snoop filter with multiple (>1) holders of the requested data.
system.membus.snoop_filter.hit_single_requests      6836902                       # Number of requests hitting in the snoop filter with a single holder of the requested data.
system.membus.snoop_filter.hit_single_snoops            0                       # Number of snoops hitting in the snoop filter with a single holder of the requested data.
system.membus.snoop_filter.tot_requests      13744051                       # Total number of requests made to the snoop filter.
system.membus.snoop_filter.tot_snoops               0                       # Total number of snoops made to the snoop filter.
system.switch_cpus0.cc_regfile_reads        379227750                       # number of cc regfile reads
system.switch_cpus0.cc_regfile_writes       154901767                       # number of cc regfile writes
system.switch_cpus0.committedInsts          249057624                       # Number of Instructions Simulated
system.switch_cpus0.committedOps            428985293                       # Number of Ops (including micro ops) Simulated
system.switch_cpus0.cpi                      1.677792                       # CPI: Cycles Per Instruction
system.switch_cpus0.cpi_total                1.677792                       # CPI: Total CPI of All Threads
system.switch_cpus0.fp_regfile_writes              56                       # number of floating regfile writes
system.switch_cpus0.idleCycles                   9853                       # Total number of cycles that the CPU has spent unscheduled due to idling
system.switch_cpus0.iew.branchMispredicts      5958229                       # Number of branch mispredicts detected at execute
system.switch_cpus0.iew.exec_branches       100345012                       # Number of branches executed
system.switch_cpus0.iew.exec_nop                    0                       # number of nop insts executed
system.switch_cpus0.iew.exec_rate            1.651307                       # Inst execution rate
system.switch_cpus0.iew.exec_refs           171219601                       # number of memory reference insts executed
system.switch_cpus0.iew.exec_stores          35725365                       # Number of stores executed
system.switch_cpus0.iew.exec_swp                    0                       # number of swp insts executed
system.switch_cpus0.iew.iewBlockCycles      179007428                       # Number of cycles IEW is blocking
system.switch_cpus0.iew.iewDispLoadInsts    155983429                       # Number of dispatched load instructions
system.switch_cpus0.iew.iewDispNonSpecInsts            0                       # Number of dispatched non-speculative instructions
system.switch_cpus0.iew.iewDispSquashedInsts       208473                       # Number of squashed instructions skipped by dispatch
system.switch_cpus0.iew.iewDispStoreInsts     40565566                       # Number of dispatched store instructions
system.switch_cpus0.iew.iewDispatchedInsts    788142712                       # Number of instructions dispatched to IQ
system.switch_cpus0.iew.iewExecLoadInsts    135494236                       # Number of load instructions executed
system.switch_cpus0.iew.iewExecSquashedInsts     17663755                       # Number of squashed instructions skipped in execute
system.switch_cpus0.iew.iewExecutedInsts    690026262                       # Number of executed instructions
system.switch_cpus0.iew.iewIQFullEvents        809009                       # Number of times the IQ has become full, causing a stall
system.switch_cpus0.iew.iewIdleCycles               0                       # Number of cycles IEW is idle
system.switch_cpus0.iew.iewLSQFullEvents     17174942                       # Number of times the LSQ has become full, causing a stall
system.switch_cpus0.iew.iewSquashCycles       5766133                       # Number of cycles IEW is squashing
system.switch_cpus0.iew.iewUnblockCycles     18639407                       # Number of cycles IEW is unblocking
system.switch_cpus0.iew.memOrderViolationEvents        22574                       # Number of memory order violations
system.switch_cpus0.iew.predictedNotTakenIncorrect      3259805                       # Number of branches that were predicted not taken incorrectly
system.switch_cpus0.iew.predictedTakenIncorrect      2698424                       # Number of branches that were predicted taken incorrectly
system.switch_cpus0.iew.wb_consumers        720015205                       # num instructions consuming a value
system.switch_cpus0.iew.wb_count            681550036                       # cumulative count of insts written-back
system.switch_cpus0.iew.wb_fanout            0.655446                       # average fanout of values written-back
system.switch_cpus0.iew.wb_producers        471931251                       # num instructions producing a value
system.switch_cpus0.iew.wb_rate              1.631022                       # insts written-back per cycle
system.switch_cpus0.iew.wb_sent             686206528                       # cumulative count of insts sent to commit
system.switch_cpus0.int_regfile_reads       987674247                       # number of integer regfile reads
system.switch_cpus0.int_regfile_writes      554158082                       # number of integer regfile writes
system.switch_cpus0.ipc                      0.596022                       # IPC: Instructions Per Cycle
system.switch_cpus0.ipc_total                0.596022                       # IPC: Total IPC of All Threads
system.switch_cpus0.iq.FU_type_0::No_OpClass       313031      0.04%      0.04% # Type of FU issued
system.switch_cpus0.iq.FU_type_0::IntAlu    526180083     74.35%     74.40% # Type of FU issued
system.switch_cpus0.iq.FU_type_0::IntMult       727137      0.10%     74.50% # Type of FU issued
system.switch_cpus0.iq.FU_type_0::IntDiv      1842941      0.26%     74.76% # Type of FU issued
system.switch_cpus0.iq.FU_type_0::FloatAdd            0      0.00%     74.76% # Type of FU issued
system.switch_cpus0.iq.FU_type_0::FloatCmp            0      0.00%     74.76% # Type of FU issued
system.switch_cpus0.iq.FU_type_0::FloatCvt            0      0.00%     74.76% # Type of FU issued
system.switch_cpus0.iq.FU_type_0::FloatMult            0      0.00%     74.76% # Type of FU issued
system.switch_cpus0.iq.FU_type_0::FloatMultAcc            0      0.00%     74.76% # Type of FU issued
system.switch_cpus0.iq.FU_type_0::FloatDiv            0      0.00%     74.76% # Type of FU issued
system.switch_cpus0.iq.FU_type_0::FloatMisc            0      0.00%     74.76% # Type of FU issued
system.switch_cpus0.iq.FU_type_0::FloatSqrt            0      0.00%     74.76% # Type of FU issued
system.switch_cpus0.iq.FU_type_0::SimdAdd            0      0.00%     74.76% # Type of FU issued
system.switch_cpus0.iq.FU_type_0::SimdAddAcc            0      0.00%     74.76% # Type of FU issued
system.switch_cpus0.iq.FU_type_0::SimdAlu            0      0.00%     74.76% # Type of FU issued
system.switch_cpus0.iq.FU_type_0::SimdCmp            0      0.00%     74.76% # Type of FU issued
system.switch_cpus0.iq.FU_type_0::SimdCvt            0      0.00%     74.76% # Type of FU issued
system.switch_cpus0.iq.FU_type_0::SimdMisc            0      0.00%     74.76% # Type of FU issued
system.switch_cpus0.iq.FU_type_0::SimdMult            0      0.00%     74.76% # Type of FU issued
system.switch_cpus0.iq.FU_type_0::SimdMultAcc            0      0.00%     74.76% # Type of FU issued
system.switch_cpus0.iq.FU_type_0::SimdShift            0      0.00%     74.76% # Type of FU issued
system.switch_cpus0.iq.FU_type_0::SimdShiftAcc            0      0.00%     74.76% # Type of FU issued
system.switch_cpus0.iq.FU_type_0::SimdDiv            0      0.00%     74.76% # Type of FU issued
system.switch_cpus0.iq.FU_type_0::SimdSqrt            0      0.00%     74.76% # Type of FU issued
system.switch_cpus0.iq.FU_type_0::SimdFloatAdd            0      0.00%     74.76% # Type of FU issued
system.switch_cpus0.iq.FU_type_0::SimdFloatAlu            0      0.00%     74.76% # Type of FU issued
system.switch_cpus0.iq.FU_type_0::SimdFloatCmp            0      0.00%     74.76% # Type of FU issued
system.switch_cpus0.iq.FU_type_0::SimdFloatCvt            0      0.00%     74.76% # Type of FU issued
system.switch_cpus0.iq.FU_type_0::SimdFloatDiv            0      0.00%     74.76% # Type of FU issued
system.switch_cpus0.iq.FU_type_0::SimdFloatMisc            0      0.00%     74.76% # Type of FU issued
system.switch_cpus0.iq.FU_type_0::SimdFloatMult            0      0.00%     74.76% # Type of FU issued
system.switch_cpus0.iq.FU_type_0::SimdFloatMultAcc            0      0.00%     74.76% # Type of FU issued
system.switch_cpus0.iq.FU_type_0::SimdFloatSqrt            0      0.00%     74.76% # Type of FU issued
system.switch_cpus0.iq.FU_type_0::SimdReduceAdd            0      0.00%     74.76% # Type of FU issued
system.switch_cpus0.iq.FU_type_0::SimdReduceAlu            0      0.00%     74.76% # Type of FU issued
system.switch_cpus0.iq.FU_type_0::SimdReduceCmp            0      0.00%     74.76% # Type of FU issued
system.switch_cpus0.iq.FU_type_0::SimdFloatReduceAdd            0      0.00%     74.76% # Type of FU issued
system.switch_cpus0.iq.FU_type_0::SimdFloatReduceCmp            0      0.00%     74.76% # Type of FU issued
system.switch_cpus0.iq.FU_type_0::SimdAes            0      0.00%     74.76% # Type of FU issued
system.switch_cpus0.iq.FU_type_0::SimdAesMix            0      0.00%     74.76% # Type of FU issued
system.switch_cpus0.iq.FU_type_0::SimdSha1Hash            0      0.00%     74.76% # Type of FU issued
system.switch_cpus0.iq.FU_type_0::SimdSha1Hash2            0      0.00%     74.76% # Type of FU issued
system.switch_cpus0.iq.FU_type_0::SimdSha256Hash            0      0.00%     74.76% # Type of FU issued
system.switch_cpus0.iq.FU_type_0::SimdSha256Hash2            0      0.00%     74.76% # Type of FU issued
system.switch_cpus0.iq.FU_type_0::SimdShaSigma2            0      0.00%     74.76% # Type of FU issued
system.switch_cpus0.iq.FU_type_0::SimdShaSigma3            0      0.00%     74.76% # Type of FU issued
system.switch_cpus0.iq.FU_type_0::SimdPredAlu            0      0.00%     74.76% # Type of FU issued
system.switch_cpus0.iq.FU_type_0::MemRead    141457658     19.99%     94.75% # Type of FU issued
system.switch_cpus0.iq.FU_type_0::MemWrite     37169167      5.25%    100.00% # Type of FU issued
system.switch_cpus0.iq.FU_type_0::FloatMemRead            0      0.00%    100.00% # Type of FU issued
system.switch_cpus0.iq.FU_type_0::FloatMemWrite            0      0.00%    100.00% # Type of FU issued
system.switch_cpus0.iq.FU_type_0::IprAccess            0      0.00%    100.00% # Type of FU issued
system.switch_cpus0.iq.FU_type_0::InstPrefetch            0      0.00%    100.00% # Type of FU issued
system.switch_cpus0.iq.FU_type_0::total     707690017                       # Type of FU issued
system.switch_cpus0.iq.fp_alu_accesses              0                       # Number of floating point alu accesses
system.switch_cpus0.iq.fp_inst_queue_reads            0                       # Number of floating instruction queue reads
system.switch_cpus0.iq.fp_inst_queue_wakeup_accesses            0                       # Number of floating instruction queue wakeup accesses
system.switch_cpus0.iq.fp_inst_queue_writes            0                       # Number of floating instruction queue writes
system.switch_cpus0.iq.fu_busy_cnt           13648246                       # FU busy when requested
system.switch_cpus0.iq.fu_busy_rate          0.019286                       # FU busy rate (busy events/executed inst)
system.switch_cpus0.iq.fu_full::No_OpClass            0      0.00%      0.00% # attempts to use FU when none available
system.switch_cpus0.iq.fu_full::IntAlu       11912480     87.28%     87.28% # attempts to use FU when none available
system.switch_cpus0.iq.fu_full::IntMult             0      0.00%     87.28% # attempts to use FU when none available
system.switch_cpus0.iq.fu_full::IntDiv              0      0.00%     87.28% # attempts to use FU when none available
system.switch_cpus0.iq.fu_full::FloatAdd            0      0.00%     87.28% # attempts to use FU when none available
system.switch_cpus0.iq.fu_full::FloatCmp            0      0.00%     87.28% # attempts to use FU when none available
system.switch_cpus0.iq.fu_full::FloatCvt            0      0.00%     87.28% # attempts to use FU when none available
system.switch_cpus0.iq.fu_full::FloatMult            0      0.00%     87.28% # attempts to use FU when none available
system.switch_cpus0.iq.fu_full::FloatMultAcc            0      0.00%     87.28% # attempts to use FU when none available
system.switch_cpus0.iq.fu_full::FloatDiv            0      0.00%     87.28% # attempts to use FU when none available
system.switch_cpus0.iq.fu_full::FloatMisc            0      0.00%     87.28% # attempts to use FU when none available
system.switch_cpus0.iq.fu_full::FloatSqrt            0      0.00%     87.28% # attempts to use FU when none available
system.switch_cpus0.iq.fu_full::SimdAdd             0      0.00%     87.28% # attempts to use FU when none available
system.switch_cpus0.iq.fu_full::SimdAddAcc            0      0.00%     87.28% # attempts to use FU when none available
system.switch_cpus0.iq.fu_full::SimdAlu             0      0.00%     87.28% # attempts to use FU when none available
system.switch_cpus0.iq.fu_full::SimdCmp             0      0.00%     87.28% # attempts to use FU when none available
system.switch_cpus0.iq.fu_full::SimdCvt             0      0.00%     87.28% # attempts to use FU when none available
system.switch_cpus0.iq.fu_full::SimdMisc            0      0.00%     87.28% # attempts to use FU when none available
system.switch_cpus0.iq.fu_full::SimdMult            0      0.00%     87.28% # attempts to use FU when none available
system.switch_cpus0.iq.fu_full::SimdMultAcc            0      0.00%     87.28% # attempts to use FU when none available
system.switch_cpus0.iq.fu_full::SimdShift            0      0.00%     87.28% # attempts to use FU when none available
system.switch_cpus0.iq.fu_full::SimdShiftAcc            0      0.00%     87.28% # attempts to use FU when none available
system.switch_cpus0.iq.fu_full::SimdDiv             0      0.00%     87.28% # attempts to use FU when none available
system.switch_cpus0.iq.fu_full::SimdSqrt            0      0.00%     87.28% # attempts to use FU when none available
system.switch_cpus0.iq.fu_full::SimdFloatAdd            0      0.00%     87.28% # attempts to use FU when none available
system.switch_cpus0.iq.fu_full::SimdFloatAlu            0      0.00%     87.28% # attempts to use FU when none available
system.switch_cpus0.iq.fu_full::SimdFloatCmp            0      0.00%     87.28% # attempts to use FU when none available
system.switch_cpus0.iq.fu_full::SimdFloatCvt            0      0.00%     87.28% # attempts to use FU when none available
system.switch_cpus0.iq.fu_full::SimdFloatDiv            0      0.00%     87.28% # attempts to use FU when none available
system.switch_cpus0.iq.fu_full::SimdFloatMisc            0      0.00%     87.28% # attempts to use FU when none available
system.switch_cpus0.iq.fu_full::SimdFloatMult            0      0.00%     87.28% # attempts to use FU when none available
system.switch_cpus0.iq.fu_full::SimdFloatMultAcc            0      0.00%     87.28% # attempts to use FU when none available
system.switch_cpus0.iq.fu_full::SimdFloatSqrt            0      0.00%     87.28% # attempts to use FU when none available
system.switch_cpus0.iq.fu_full::SimdReduceAdd            0      0.00%     87.28% # attempts to use FU when none available
system.switch_cpus0.iq.fu_full::SimdReduceAlu            0      0.00%     87.28% # attempts to use FU when none available
system.switch_cpus0.iq.fu_full::SimdReduceCmp            0      0.00%     87.28% # attempts to use FU when none available
system.switch_cpus0.iq.fu_full::SimdFloatReduceAdd            0      0.00%     87.28% # attempts to use FU when none available
system.switch_cpus0.iq.fu_full::SimdFloatReduceCmp            0      0.00%     87.28% # attempts to use FU when none available
system.switch_cpus0.iq.fu_full::SimdAes             0      0.00%     87.28% # attempts to use FU when none available
system.switch_cpus0.iq.fu_full::SimdAesMix            0      0.00%     87.28% # attempts to use FU when none available
system.switch_cpus0.iq.fu_full::SimdSha1Hash            0      0.00%     87.28% # attempts to use FU when none available
system.switch_cpus0.iq.fu_full::SimdSha1Hash2            0      0.00%     87.28% # attempts to use FU when none available
system.switch_cpus0.iq.fu_full::SimdSha256Hash            0      0.00%     87.28% # attempts to use FU when none available
system.switch_cpus0.iq.fu_full::SimdSha256Hash2            0      0.00%     87.28% # attempts to use FU when none available
system.switch_cpus0.iq.fu_full::SimdShaSigma2            0      0.00%     87.28% # attempts to use FU when none available
system.switch_cpus0.iq.fu_full::SimdShaSigma3            0      0.00%     87.28% # attempts to use FU when none available
system.switch_cpus0.iq.fu_full::SimdPredAlu            0      0.00%     87.28% # attempts to use FU when none available
system.switch_cpus0.iq.fu_full::MemRead       1608604     11.79%     99.07% # attempts to use FU when none available
system.switch_cpus0.iq.fu_full::MemWrite       127162      0.93%    100.00% # attempts to use FU when none available
system.switch_cpus0.iq.fu_full::FloatMemRead            0      0.00%    100.00% # attempts to use FU when none available
system.switch_cpus0.iq.fu_full::FloatMemWrite            0      0.00%    100.00% # attempts to use FU when none available
system.switch_cpus0.iq.fu_full::IprAccess            0      0.00%    100.00% # attempts to use FU when none available
system.switch_cpus0.iq.fu_full::InstPrefetch            0      0.00%    100.00% # attempts to use FU when none available
system.switch_cpus0.iq.int_alu_accesses     721025232                       # Number of integer alu accesses
system.switch_cpus0.iq.int_inst_queue_reads   1849500488                       # Number of integer instruction queue reads
system.switch_cpus0.iq.int_inst_queue_wakeup_accesses    681550036                       # Number of integer instruction queue wakeup accesses
system.switch_cpus0.iq.int_inst_queue_writes   1147321589                       # Number of integer instruction queue writes
system.switch_cpus0.iq.iqInstsAdded         788142712                       # Number of instructions added to the IQ (excludes non-spec)
system.switch_cpus0.iq.iqInstsIssued        707690017                       # Number of instructions issued
system.switch_cpus0.iq.iqSquashedInstsExamined    359157419                       # Number of squashed instructions iterated over during squash; mainly for profiling
system.switch_cpus0.iq.iqSquashedInstsIssued      2615283                       # Number of squashed instructions issued
system.switch_cpus0.iq.iqSquashedOperandsExamined    382146339                       # Number of squashed operands that are examined and possibly removed from graph
system.switch_cpus0.iq.issued_per_cycle::samples    417856925                       # Number of insts issued each cycle
system.switch_cpus0.iq.issued_per_cycle::mean     1.693618                       # Number of insts issued each cycle
system.switch_cpus0.iq.issued_per_cycle::stdev     2.652598                       # Number of insts issued each cycle
system.switch_cpus0.iq.issued_per_cycle::underflows            0      0.00%      0.00% # Number of insts issued each cycle
system.switch_cpus0.iq.issued_per_cycle::0    265827409     63.62%     63.62% # Number of insts issued each cycle
system.switch_cpus0.iq.issued_per_cycle::1     23530614      5.63%     69.25% # Number of insts issued each cycle
system.switch_cpus0.iq.issued_per_cycle::2     15812374      3.78%     73.03% # Number of insts issued each cycle
system.switch_cpus0.iq.issued_per_cycle::3     10681928      2.56%     75.59% # Number of insts issued each cycle
system.switch_cpus0.iq.issued_per_cycle::4     15761049      3.77%     79.36% # Number of insts issued each cycle
system.switch_cpus0.iq.issued_per_cycle::5     20421055      4.89%     84.25% # Number of insts issued each cycle
system.switch_cpus0.iq.issued_per_cycle::6     24530355      5.87%     90.12% # Number of insts issued each cycle
system.switch_cpus0.iq.issued_per_cycle::7     22179858      5.31%     95.43% # Number of insts issued each cycle
system.switch_cpus0.iq.issued_per_cycle::8     19112283      4.57%    100.00% # Number of insts issued each cycle
system.switch_cpus0.iq.issued_per_cycle::overflows            0      0.00%    100.00% # Number of insts issued each cycle
system.switch_cpus0.iq.issued_per_cycle::min_value            0                       # Number of insts issued each cycle
system.switch_cpus0.iq.issued_per_cycle::max_value            8                       # Number of insts issued each cycle
system.switch_cpus0.iq.issued_per_cycle::total    417856925                       # Number of insts issued each cycle
system.switch_cpus0.iq.rate                  1.693578                       # Inst issue rate
system.switch_cpus0.iq.vec_alu_accesses             0                       # Number of vector alu accesses
system.switch_cpus0.iq.vec_inst_queue_reads            0                       # Number of vector instruction queue reads
system.switch_cpus0.iq.vec_inst_queue_wakeup_accesses            0                       # Number of vector instruction queue wakeup accesses
system.switch_cpus0.iq.vec_inst_queue_writes            0                       # Number of vector instruction queue writes
system.switch_cpus0.memDep0.conflictingLoads     15048092                       # Number of conflicting loads.
system.switch_cpus0.memDep0.conflictingStores      4928520                       # Number of conflicting stores.
system.switch_cpus0.memDep0.insertedLoads    155983429                       # Number of loads inserted to the mem dependence unit.
system.switch_cpus0.memDep0.insertedStores     40565566                       # Number of stores inserted to the mem dependence unit.
system.switch_cpus0.misc_regfile_reads      371564981                       # number of misc regfile reads
system.switch_cpus0.misc_regfile_writes             1                       # number of misc regfile writes
system.switch_cpus0.numCycles               417866778                       # number of cpu cycles simulated
system.switch_cpus0.numWorkItemsCompleted            0                       # number of work items this cpu completed
system.switch_cpus0.numWorkItemsStarted             0                       # number of work items this cpu started
system.switch_cpus0.timesIdled                     54                       # Number of times that the entire CPU went into an idle state and unscheduled itself
system.switch_cpus1.cc_regfile_reads        378500974                       # number of cc regfile reads
system.switch_cpus1.cc_regfile_writes       154589939                       # number of cc regfile writes
system.switch_cpus1.committedInsts          248496475                       # Number of Instructions Simulated
system.switch_cpus1.committedOps            428027883                       # Number of Ops (including micro ops) Simulated
system.switch_cpus1.cpi                      1.681580                       # CPI: Cycles Per Instruction
system.switch_cpus1.cpi_total                1.681580                       # CPI: Total CPI of All Threads
system.switch_cpus1.fp_regfile_writes              56                       # number of floating regfile writes
system.switch_cpus1.idleCycles                   8460                       # Total number of cycles that the CPU has spent unscheduled due to idling
system.switch_cpus1.iew.branchMispredicts      5948715                       # Number of branch mispredicts detected at execute
system.switch_cpus1.iew.exec_branches       100151303                       # Number of branches executed
system.switch_cpus1.iew.exec_nop                    0                       # number of nop insts executed
system.switch_cpus1.iew.exec_rate            1.648118                       # Inst execution rate
system.switch_cpus1.iew.exec_refs           170864060                       # number of memory reference insts executed
system.switch_cpus1.iew.exec_stores          35648299                       # Number of stores executed
system.switch_cpus1.iew.exec_swp                    0                       # number of swp insts executed
system.switch_cpus1.iew.iewBlockCycles      179637179                       # Number of cycles IEW is blocking
system.switch_cpus1.iew.iewDispLoadInsts    155691089                       # Number of dispatched load instructions
system.switch_cpus1.iew.iewDispNonSpecInsts            0                       # Number of dispatched non-speculative instructions
system.switch_cpus1.iew.iewDispSquashedInsts       209009                       # Number of squashed instructions skipped by dispatch
system.switch_cpus1.iew.iewDispStoreInsts     40484857                       # Number of dispatched store instructions
system.switch_cpus1.iew.iewDispatchedInsts    786691905                       # Number of instructions dispatched to IQ
system.switch_cpus1.iew.iewExecLoadInsts    135215761                       # Number of load instructions executed
system.switch_cpus1.iew.iewExecSquashedInsts     17633259                       # Number of squashed instructions skipped in execute
system.switch_cpus1.iew.iewExecutedInsts    688693593                       # Number of executed instructions
system.switch_cpus1.iew.iewIQFullEvents        806450                       # Number of times the IQ has become full, causing a stall
system.switch_cpus1.iew.iewIdleCycles               0                       # Number of cycles IEW is idle
system.switch_cpus1.iew.iewLSQFullEvents     17444880                       # Number of times the LSQ has become full, causing a stall
system.switch_cpus1.iew.iewSquashCycles       5756418                       # Number of cycles IEW is squashing
system.switch_cpus1.iew.iewUnblockCycles     18903371                       # Number of cycles IEW is unblocking
system.switch_cpus1.iew.memOrderViolationEvents        22872                       # Number of memory order violations
system.switch_cpus1.iew.predictedNotTakenIncorrect      3254895                       # Number of branches that were predicted not taken incorrectly
system.switch_cpus1.iew.predictedTakenIncorrect      2693820                       # Number of branches that were predicted taken incorrectly
system.switch_cpus1.iew.wb_consumers        718651055                       # num instructions consuming a value
system.switch_cpus1.iew.wb_count            680229560                       # cumulative count of insts written-back
system.switch_cpus1.iew.wb_fanout            0.655405                       # average fanout of values written-back
system.switch_cpus1.iew.wb_producers        471007464                       # num instructions producing a value
system.switch_cpus1.iew.wb_rate              1.627862                       # insts written-back per cycle
system.switch_cpus1.iew.wb_sent             684879218                       # cumulative count of insts sent to commit
system.switch_cpus1.int_regfile_reads       985752033                       # number of integer regfile reads
system.switch_cpus1.int_regfile_writes      553096015                       # number of integer regfile writes
system.switch_cpus1.ipc                      0.594679                       # IPC: Instructions Per Cycle
system.switch_cpus1.ipc_total                0.594679                       # IPC: Total IPC of All Threads
system.switch_cpus1.iq.FU_type_0::No_OpClass       312767      0.04%      0.04% # Type of FU issued
system.switch_cpus1.iq.FU_type_0::IntAlu    525191479     74.36%     74.40% # Type of FU issued
system.switch_cpus1.iq.FU_type_0::IntMult       726080      0.10%     74.50% # Type of FU issued
system.switch_cpus1.iq.FU_type_0::IntDiv      1840458      0.26%     74.76% # Type of FU issued
system.switch_cpus1.iq.FU_type_0::FloatAdd            0      0.00%     74.76% # Type of FU issued
system.switch_cpus1.iq.FU_type_0::FloatCmp            0      0.00%     74.76% # Type of FU issued
system.switch_cpus1.iq.FU_type_0::FloatCvt            0      0.00%     74.76% # Type of FU issued
system.switch_cpus1.iq.FU_type_0::FloatMult            0      0.00%     74.76% # Type of FU issued
system.switch_cpus1.iq.FU_type_0::FloatMultAcc            0      0.00%     74.76% # Type of FU issued
system.switch_cpus1.iq.FU_type_0::FloatDiv            0      0.00%     74.76% # Type of FU issued
system.switch_cpus1.iq.FU_type_0::FloatMisc            0      0.00%     74.76% # Type of FU issued
system.switch_cpus1.iq.FU_type_0::FloatSqrt            0      0.00%     74.76% # Type of FU issued
system.switch_cpus1.iq.FU_type_0::SimdAdd            0      0.00%     74.76% # Type of FU issued
system.switch_cpus1.iq.FU_type_0::SimdAddAcc            0      0.00%     74.76% # Type of FU issued
system.switch_cpus1.iq.FU_type_0::SimdAlu            0      0.00%     74.76% # Type of FU issued
system.switch_cpus1.iq.FU_type_0::SimdCmp            0      0.00%     74.76% # Type of FU issued
system.switch_cpus1.iq.FU_type_0::SimdCvt            0      0.00%     74.76% # Type of FU issued
system.switch_cpus1.iq.FU_type_0::SimdMisc            0      0.00%     74.76% # Type of FU issued
system.switch_cpus1.iq.FU_type_0::SimdMult            0      0.00%     74.76% # Type of FU issued
system.switch_cpus1.iq.FU_type_0::SimdMultAcc            0      0.00%     74.76% # Type of FU issued
system.switch_cpus1.iq.FU_type_0::SimdShift            0      0.00%     74.76% # Type of FU issued
system.switch_cpus1.iq.FU_type_0::SimdShiftAcc            0      0.00%     74.76% # Type of FU issued
system.switch_cpus1.iq.FU_type_0::SimdDiv            0      0.00%     74.76% # Type of FU issued
system.switch_cpus1.iq.FU_type_0::SimdSqrt            0      0.00%     74.76% # Type of FU issued
system.switch_cpus1.iq.FU_type_0::SimdFloatAdd            0      0.00%     74.76% # Type of FU issued
system.switch_cpus1.iq.FU_type_0::SimdFloatAlu            0      0.00%     74.76% # Type of FU issued
system.switch_cpus1.iq.FU_type_0::SimdFloatCmp            0      0.00%     74.76% # Type of FU issued
system.switch_cpus1.iq.FU_type_0::SimdFloatCvt            0      0.00%     74.76% # Type of FU issued
system.switch_cpus1.iq.FU_type_0::SimdFloatDiv            0      0.00%     74.76% # Type of FU issued
system.switch_cpus1.iq.FU_type_0::SimdFloatMisc            0      0.00%     74.76% # Type of FU issued
system.switch_cpus1.iq.FU_type_0::SimdFloatMult            0      0.00%     74.76% # Type of FU issued
system.switch_cpus1.iq.FU_type_0::SimdFloatMultAcc            0      0.00%     74.76% # Type of FU issued
system.switch_cpus1.iq.FU_type_0::SimdFloatSqrt            0      0.00%     74.76% # Type of FU issued
system.switch_cpus1.iq.FU_type_0::SimdReduceAdd            0      0.00%     74.76% # Type of FU issued
system.switch_cpus1.iq.FU_type_0::SimdReduceAlu            0      0.00%     74.76% # Type of FU issued
system.switch_cpus1.iq.FU_type_0::SimdReduceCmp            0      0.00%     74.76% # Type of FU issued
system.switch_cpus1.iq.FU_type_0::SimdFloatReduceAdd            0      0.00%     74.76% # Type of FU issued
system.switch_cpus1.iq.FU_type_0::SimdFloatReduceCmp            0      0.00%     74.76% # Type of FU issued
system.switch_cpus1.iq.FU_type_0::SimdAes            0      0.00%     74.76% # Type of FU issued
system.switch_cpus1.iq.FU_type_0::SimdAesMix            0      0.00%     74.76% # Type of FU issued
system.switch_cpus1.iq.FU_type_0::SimdSha1Hash            0      0.00%     74.76% # Type of FU issued
system.switch_cpus1.iq.FU_type_0::SimdSha1Hash2            0      0.00%     74.76% # Type of FU issued
system.switch_cpus1.iq.FU_type_0::SimdSha256Hash            0      0.00%     74.76% # Type of FU issued
[...]
system.switch_cpus3.commit.numCommittedDist::mean     1.166275                       # Number of insts commited each cycle
system.switch_cpus3.commit.numCommittedDist::stdev     2.406256                       # Number of insts commited each cycle
system.switch_cpus3.commit.numCommittedDist::underflows            0      0.00%      0.00% # Number of insts commited each cycle
system.switch_cpus3.commit.numCommittedDist::0    263686068     71.85%     71.85% # Number of insts commited each cycle
system.switch_cpus3.commit.numCommittedDist::1     28932357      7.88%     79.73% # Number of insts commited each cycle
system.switch_cpus3.commit.numCommittedDist::2     12612595      3.44%     83.17% # Number of insts commited each cycle
system.switch_cpus3.commit.numCommittedDist::3     13353358      3.64%     86.80% # Number of insts commited each cycle
system.switch_cpus3.commit.numCommittedDist::4      8541397      2.33%     89.13% # Number of insts commited each cycle
system.switch_cpus3.commit.numCommittedDist::5      3773939      1.03%     90.16% # Number of insts commited each cycle
system.switch_cpus3.commit.numCommittedDist::6      2118276      0.58%     90.74% # Number of insts commited each cycle
system.switch_cpus3.commit.numCommittedDist::7      3885129      1.06%     91.80% # Number of insts commited each cycle
system.switch_cpus3.commit.numCommittedDist::8     30109983      8.20%    100.00% # Number of insts commited each cycle
system.switch_cpus3.commit.numCommittedDist::overflows            0      0.00%    100.00% # Number of insts commited each cycle
system.switch_cpus3.commit.numCommittedDist::min_value            0                       # Number of insts commited each cycle
system.switch_cpus3.commit.numCommittedDist::max_value            8                       # Number of insts commited each cycle
system.switch_cpus3.commit.numCommittedDist::total    367013102                       # Number of insts commited each cycle
system.switch_cpus3.commit.instsCommitted    248503197                       # Number of instructions committed
system.switch_cpus3.commit.opsCommitted     428038327                       # Number of ops (including micro ops) committed
system.switch_cpus3.commit.memRefs          108774826                       # Number of memory references committed
system.switch_cpus3.commit.loads             84938615                       # Number of loads committed
system.switch_cpus3.commit.amos                     0                       # Number of atomic instructions committed
system.switch_cpus3.commit.membars                  0                       # Number of memory barriers committed
system.switch_cpus3.commit.branches          63927894                       # Number of branches committed
system.switch_cpus3.commit.vector                   0                       # Number of committed Vector instructions.
system.switch_cpus3.commit.floating                 0                       # Number of committed floating point instructions.
system.switch_cpus3.commit.integer          427505182                       # Number of committed integer instructions.
system.switch_cpus3.commit.functionCalls      8220154                       # Number of function calls committed.
system.switch_cpus3.commit.committedInstType_0::No_OpClass       280116      0.07%      0.07% # Class of committed instruction
system.switch_cpus3.commit.committedInstType_0::IntAlu    316651572     73.98%     74.04% # Class of committed instruction
system.switch_cpus3.commit.committedInstType_0::IntMult       560377      0.13%     74.17% # Class of committed instruction
system.switch_cpus3.commit.committedInstType_0::IntDiv      1771436      0.41%     74.59% # Class of committed instruction
system.switch_cpus3.commit.committedInstType_0::FloatAdd            0      0.00%     74.59% # Class of committed instruction
system.switch_cpus3.commit.committedInstType_0::FloatCmp            0      0.00%     74.59% # Class of committed instruction
system.switch_cpus3.commit.committedInstType_0::FloatCvt            0      0.00%     74.59% # Class of committed instruction
system.switch_cpus3.commit.committedInstType_0::FloatMult            0      0.00%     74.59% # Class of committed instruction
system.switch_cpus3.commit.committedInstType_0::FloatMultAcc            0      0.00%     74.59% # Class of committed instruction
system.switch_cpus3.commit.committedInstType_0::FloatDiv            0      0.00%     74.59% # Class of committed instruction
system.switch_cpus3.commit.committedInstType_0::FloatMisc            0      0.00%     74.59% # Class of committed instruction
system.switch_cpus3.commit.committedInstType_0::FloatSqrt            0      0.00%     74.59% # Class of committed instruction
system.switch_cpus3.commit.committedInstType_0::SimdAdd            0      0.00%     74.59% # Class of committed instruction
system.switch_cpus3.commit.committedInstType_0::SimdAddAcc            0      0.00%     74.59% # Class of committed instruction
system.switch_cpus3.commit.committedInstType_0::SimdAlu            0      0.00%     74.59% # Class of committed instruction
system.switch_cpus3.commit.committedInstType_0::SimdCmp            0      0.00%     74.59% # Class of committed instruction
system.switch_cpus3.commit.committedInstType_0::SimdCvt            0      0.00%     74.59% # Class of committed instruction
system.switch_cpus3.commit.committedInstType_0::SimdMisc            0      0.00%     74.59% # Class of committed instruction
system.switch_cpus3.commit.committedInstType_0::SimdMult            0      0.00%     74.59% # Class of committed instruction
system.switch_cpus3.commit.committedInstType_0::SimdMultAcc            0      0.00%     74.59% # Class of committed instruction
system.switch_cpus3.commit.committedInstType_0::SimdShift            0      0.00%     74.59% # Class of committed instruction
system.switch_cpus3.commit.committedInstType_0::SimdShiftAcc            0      0.00%     74.59% # Class of committed instruction
system.switch_cpus3.commit.committedInstType_0::SimdDiv            0      0.00%     74.59% # Class of committed instruction
system.switch_cpus3.commit.committedInstType_0::SimdSqrt            0      0.00%     74.59% # Class of committed instruction
system.switch_cpus3.commit.committedInstType_0::SimdFloatAdd            0      0.00%     74.59% # Class of committed instruction
system.switch_cpus3.commit.committedInstType_0::SimdFloatAlu            0      0.00%     74.59% # Class of committed instruction
system.switch_cpus3.commit.committedInstType_0::SimdFloatCmp            0      0.00%     74.59% # Class of committed instruction
system.switch_cpus3.commit.committedInstType_0::SimdFloatCvt            0      0.00%     74.59% # Class of committed instruction
system.switch_cpus3.commit.committedInstType_0::SimdFloatDiv            0      0.00%     74.59% # Class of committed instruction
system.switch_cpus3.commit.committedInstType_0::SimdFloatMisc            0      0.00%     74.59% # Class of committed instruction
system.switch_cpus3.commit.committedInstType_0::SimdFloatMult            0      0.00%     74.59% # Class of committed instruction
system.switch_cpus3.commit.committedInstType_0::SimdFloatMultAcc            0      0.00%     74.59% # Class of committed instruction
system.switch_cpus3.commit.committedInstType_0::SimdFloatSqrt            0      0.00%     74.59% # Class of committed instruction
system.switch_cpus3.commit.committedInstType_0::SimdReduceAdd            0      0.00%     74.59% # Class of committed instruction
system.switch_cpus3.commit.committedInstType_0::SimdReduceAlu            0      0.00%     74.59% # Class of committed instruction
system.switch_cpus3.commit.committedInstType_0::SimdReduceCmp            0      0.00%     74.59% # Class of committed instruction
system.switch_cpus3.commit.committedInstType_0::SimdFloatReduceAdd            0      0.00%     74.59% # Class of committed instruction
system.switch_cpus3.commit.committedInstType_0::SimdFloatReduceCmp            0      0.00%     74.59% # Class of committed instruction
system.switch_cpus3.commit.committedInstType_0::SimdAes            0      0.00%     74.59% # Class of committed instruction
system.switch_cpus3.commit.committedInstType_0::SimdAesMix            0      0.00%     74.59% # Class of committed instruction
system.switch_cpus3.commit.committedInstType_0::SimdSha1Hash            0      0.00%     74.59% # Class of committed instruction
system.switch_cpus3.commit.committedInstType_0::SimdSha1Hash2            0      0.00%     74.59% # Class of committed instruction
system.switch_cpus3.commit.committedInstType_0::SimdSha256Hash            0      0.00%     74.59% # Class of committed instruction
system.switch_cpus3.commit.committedInstType_0::SimdSha256Hash2            0      0.00%     74.59% # Class of committed instruction
system.switch_cpus3.commit.committedInstType_0::SimdShaSigma2            0      0.00%     74.59% # Class of committed instruction
system.switch_cpus3.commit.committedInstType_0::SimdShaSigma3            0      0.00%     74.59% # Class of committed instruction
system.switch_cpus3.commit.committedInstType_0::SimdPredAlu            0      0.00%     74.59% # Class of committed instruction
system.switch_cpus3.commit.committedInstType_0::MemRead     84938615     19.84%     94.43% # Class of committed instruction
system.switch_cpus3.commit.committedInstType_0::MemWrite     23836211      5.57%    100.00% # Class of committed instruction
system.switch_cpus3.commit.committedInstType_0::FloatMemRead            0      0.00%    100.00% # Class of committed instruction
system.switch_cpus3.commit.committedInstType_0::FloatMemWrite            0      0.00%    100.00% # Class of committed instruction
system.switch_cpus3.commit.committedInstType_0::IprAccess            0      0.00%    100.00% # Class of committed instruction
system.switch_cpus3.commit.committedInstType_0::InstPrefetch            0      0.00%    100.00% # Class of committed instruction
system.switch_cpus3.commit.committedInstType_0::total    428038327                       # Class of committed instruction
system.switch_cpus3.commit.commitEligibleSamples     30109983                       # number cycles where commit BW limit reached
system.switch_cpus3.decode.idleCycles        18082380                       # Number of cycles decode is idle
system.switch_cpus3.decode.blockedCycles    261909317                       # Number of cycles decode is blocked
system.switch_cpus3.decode.runCycles        115864646                       # Number of cycles decode is running
system.switch_cpus3.decode.unblockCycles     16244274                       # Number of cycles decode is unblocking
system.switch_cpus3.decode.squashCycles       5756419                       # Number of cycles decode is squashing
system.switch_cpus3.decode.branchResolved     46651728                       # Number of times decode resolved a  branch
system.switch_cpus3.decode.branchMispred           94                       # Number of times decode detected a branch misprediction
system.switch_cpus3.decode.decodedInsts     872057336                       # Number of instructions handled by decode
system.switch_cpus3.decode.squashedInsts          612                       # Number of squashed instructions handled by decode
system.switch_cpus3.dtb.rdAccesses          135216200                       # TLB accesses on read requests
system.switch_cpus3.dtb.wrAccesses           35647584                       # TLB accesses on write requests
system.switch_cpus3.dtb.rdMisses              1549806                       # TLB misses on read requests
system.switch_cpus3.dtb.wrMisses               281397                       # TLB misses on write requests
system.switch_cpus3.dtb.walker.power_state.pwrStateResidencyTicks::UNDEFINED 16954300515546                       # Cumulative time (in ticks) in various power states
system.switch_cpus3.fetch.icacheStallCycles      4751504                       # Number of cycles fetch is stalled on an Icache miss
system.switch_cpus3.fetch.insts             544216507                       # Number of instructions fetch has processed
system.switch_cpus3.fetch.branches          144002044                       # Number of branches that fetch encountered
system.switch_cpus3.fetch.predictedBranches     88714145                       # Number of branches that fetch has predicted taken
system.switch_cpus3.fetch.cycles            407349030                       # Number of cycles fetch has run and was not squashing or blocked
system.switch_cpus3.fetch.squashCycles       11513018                       # Number of cycles fetch has spent squashing
system.switch_cpus3.fetch.cacheLines        107636225                       # Number of cache lines fetched
system.switch_cpus3.fetch.icacheSquashes          121                       # Number of outstanding Icache misses that were squashed
system.switch_cpus3.fetch.nisnDist::samples    417857043                       # Number of instructions fetched each cycle (Total)
system.switch_cpus3.fetch.nisnDist::mean     2.254559                       # Number of instructions fetched each cycle (Total)
system.switch_cpus3.fetch.nisnDist::stdev     3.100427                       # Number of instructions fetched each cycle (Total)
system.switch_cpus3.fetch.nisnDist::underflows            0      0.00%      0.00% # Number of instructions fetched each cycle (Total)
system.switch_cpus3.fetch.nisnDist::0       243926280     58.38%     58.38% # Number of instructions fetched each cycle (Total)
system.switch_cpus3.fetch.nisnDist::1        13978250      3.35%     61.72% # Number of instructions fetched each cycle (Total)
system.switch_cpus3.fetch.nisnDist::2        12221991      2.92%     64.65% # Number of instructions fetched each cycle (Total)
system.switch_cpus3.fetch.nisnDist::3        21969434      5.26%     69.90% # Number of instructions fetched each cycle (Total)
system.switch_cpus3.fetch.nisnDist::4        21618520      5.17%     75.08% # Number of instructions fetched each cycle (Total)
system.switch_cpus3.fetch.nisnDist::5        12261418      2.93%     78.01% # Number of instructions fetched each cycle (Total)
system.switch_cpus3.fetch.nisnDist::6        11721271      2.81%     80.82% # Number of instructions fetched each cycle (Total)
system.switch_cpus3.fetch.nisnDist::7        21635068      5.18%     85.99% # Number of instructions fetched each cycle (Total)
system.switch_cpus3.fetch.nisnDist::8        58524811     14.01%    100.00% # Number of instructions fetched each cycle (Total)
system.switch_cpus3.fetch.nisnDist::overflows            0      0.00%    100.00% # Number of instructions fetched each cycle (Total)
system.switch_cpus3.fetch.nisnDist::min_value            0                       # Number of instructions fetched each cycle (Total)
system.switch_cpus3.fetch.nisnDist::max_value            8                       # Number of instructions fetched each cycle (Total)
system.switch_cpus3.fetch.nisnDist::total    417857043                       # Number of instructions fetched each cycle (Total)
system.switch_cpus3.fetch.branchRate         0.344612                       # Number of branch fetches per cycle
system.switch_cpus3.fetch.rate               1.302368                       # Number of inst fetches per cycle
system.switch_cpus3.itb.rdAccesses                  0                       # TLB accesses on read requests
system.switch_cpus3.itb.wrAccesses          107636225                       # TLB accesses on write requests
system.switch_cpus3.itb.rdMisses                    0                       # TLB misses on read requests
system.switch_cpus3.itb.wrMisses                    5                       # TLB misses on write requests
system.switch_cpus3.itb.walker.power_state.pwrStateResidencyTicks::UNDEFINED 16954300515546                       # Cumulative time (in ticks) in various power states
system.switch_cpus3.lsq0.forwLoads           22576439                       # Number of loads that had data forwarded from stores
system.switch_cpus3.lsq0.squashedLoads       70755280                       # Number of loads squashed
system.switch_cpus3.lsq0.ignoredResponses       399956                       # Number of memory responses ignored because the instruction is squashed
system.switch_cpus3.lsq0.memOrderViolation        23021                       # Number of memory ordering violations
system.switch_cpus3.lsq0.squashedStores      16649585                       # Number of stores squashed
system.switch_cpus3.lsq0.rescheduledLoads         2354                       # Number of loads that were rescheduled
system.switch_cpus3.lsq0.blockedByCache            93                       # Number of times an access to memory failed due to the cache being blocked
system.switch_cpus3.power_state.pwrStateResidencyTicks::OFF 139149647397                       # Cumulative time (in ticks) in various power states
system.switch_cpus3.rename.squashCycles       5756419                       # Number of cycles rename is squashing
system.switch_cpus3.rename.idleCycles        25377321                       # Number of cycles rename is idle
system.switch_cpus3.rename.blockCycles      218973691                       # Number of cycles rename is blocking
system.switch_cpus3.rename.serializeStallCycles            0                       # count of cycles rename stalledfor serializing inst
system.switch_cpus3.rename.runCycles        122891456                       # Number of cycles rename is running
system.switch_cpus3.rename.unblockCycles     44858149                       # Number of cycles rename is unblocking
system.switch_cpus3.rename.renamedInsts     841480228                       # Number of instructions processed by rename
system.switch_cpus3.rename.ROBFullEvents      3990190                       # Number of times rename has blocked due to ROB full
system.switch_cpus3.rename.IQFullEvents      19404480                       # Number of times rename has blocked due to IQ full
system.switch_cpus3.rename.LQFullEvents      30397916                       # Number of times rename has blocked due to LQ full
system.switch_cpus3.rename.SQFullEvents        603869                       # Number of times rename has blocked due to SQ full
system.switch_cpus3.rename.renamedOperands    879191905                       # Number of destination operands rename has renamed
system.switch_cpus3.rename.lookups         2248942493                       # Number of register rename lookups that rename has made
system.switch_cpus3.rename.intLookups      1256905464                       # Number of integer rename lookups
system.switch_cpus3.rename.committedMaps    451539965                       # Number of HB maps that are committed
system.switch_cpus3.rename.undoneMaps       427651815                       # Number of HB maps that are undone due to squashing
system.switch_cpus3.rename.serializing              0                       # count of serializing insts renamed
system.switch_cpus3.rename.tempSerializing            0                       # count of temporary serializing insts renamed
system.switch_cpus3.rename.skidInsts         47353548                       # count of insts added to the skid buffer
system.switch_cpus3.rob.reads              1123639705                       # The number of ROB reads
system.switch_cpus3.rob.writes             1624603621                       # The number of ROB writes
system.switch_cpus3.thread0.numInsts        248503197                       # Number of Instructions committed
system.switch_cpus3.thread0.numOps          428038327                       # Number of Ops committed
system.switch_cpus3.thread0.numMemRefs              0                       # Number of Memory References
system.voltage_domain.voltage                       1                       # Voltage in Volts

---------- End Simulation Statistics   ----------
