
---------- Begin Simulation Statistics ----------
final_tick                               16955327092275                       # Number of ticks from beginning of simulation (restored from checkpoints and never reset)
host_inst_rate                                 101826                       # Simulator instruction rate (inst/s)
host_mem_usage                               17039852                       # Number of bytes of host memory used
host_op_rate                                   175388                       # Simulator op (including micro ops) rate (op/s)
host_seconds                                  9805.28                       # Real time elapsed on the host
host_tick_rate                               14295988                       # Simulator tick rate (ticks/s)
sim_freq                                 1000000000000                       # Frequency of simulated ticks
sim_insts                                   998430810                       # Number of instructions simulated
sim_ops                                    1719730663                       # Number of ops (including micro ops) simulated
sim_seconds                                  0.140176                       # Number of seconds simulated
sim_ticks                                140176186497                       # Number of ticks simulated
system.cpu0.Branches                                2                       # Number of branches fetched
system.cpu0.committedInsts                         16                       # Number of instructions committed
system.cpu0.committedOps                           24                       # Number of ops (including micro ops) committed
system.cpu0.idle_fraction                           0                       # Percentage of idle cycles
system.cpu0.l2bus.snoop_filter.hit_multi_requests          436                       # Number of requests hitting in the snoop filter with multiple (>1) holders of the requested data.
system.cpu0.l2bus.snoop_filter.hit_multi_snoops          127                       # Number of snoops hitting in the snoop filter with multiple (>1) holders of the requested data.
system.cpu0.l2bus.snoop_filter.hit_single_requests      8467785                       # Number of requests hitting in the snoop filter with a single holder of the requested data.
system.cpu0.l2bus.snoop_filter.hit_single_snoops         2595                       # Number of snoops hitting in the snoop filter with a single holder of the requested data.
system.cpu0.l2bus.snoop_filter.tot_requests     16877766                       # Total number of requests made to the snoop filter.
system.cpu0.l2bus.snoop_filter.tot_snoops         2722                       # Total number of snoops made to the snoop filter.
system.cpu0.mmucache.mmubus.snoop_filter.hit_multi_requests            0                       # Number of requests hitting in the snoop filter with multiple (>1) holders of the requested data.
system.cpu0.mmucache.mmubus.snoop_filter.hit_multi_snoops            0                       # Number of snoops hitting in the snoop filter with multiple (>1) holders of the requested data.
system.cpu0.mmucache.mmubus.snoop_filter.hit_single_requests            0                       # Number of requests hitting in the snoop filter with a single holder of the requested data.
system.cpu0.mmucache.mmubus.snoop_filter.hit_single_snoops            0                       # Number of snoops hitting in the snoop filter with a single holder of the requested data.
system.cpu0.mmucache.mmubus.snoop_filter.tot_requests            0                       # Total number of requests made to the snoop filter.
system.cpu0.mmucache.mmubus.snoop_filter.tot_snoops            0                       # Total number of snoops made to the snoop filter.
system.cpu0.not_idle_fraction                       1                       # Percentage of non-idle cycles
system.cpu0.numCycles                              30                       # number of cpu cycles simulated
system.cpu0.numWorkItemsCompleted                   0                       # number of work items this cpu completed
system.cpu0.numWorkItemsStarted                     0                       # number of work items this cpu started
system.cpu0.num_busy_cycles                        30                       # Number of busy cycles
system.cpu0.num_cc_register_reads                  12                       # number of times the CC registers were read
system.cpu0.num_cc_register_writes                 12                       # number of times the CC registers were written
system.cpu0.num_conditional_control_insts            2                       # number of instructions that are conditional controls
system.cpu0.num_fp_alu_accesses                     0                       # Number of float alu accesses
system.cpu0.num_fp_insts                            0                       # number of float instructions
system.cpu0.num_fp_register_reads                   0                       # number of times the floating registers were read
system.cpu0.num_fp_register_writes                  0                       # number of times the floating registers were written
system.cpu0.num_func_calls                          0                       # number of times a function call or return occured
system.cpu0.num_idle_cycles                         0                       # Number of idle cycles
system.cpu0.num_int_alu_accesses                   24                       # Number of integer alu accesses
system.cpu0.num_int_insts                          24                       # number of integer instructions
system.cpu0.num_int_register_reads                 56                       # number of times the integer registers were read
system.cpu0.num_int_register_writes                19                       # number of times the integer registers were written
system.cpu0.num_load_insts                          7                       # Number of load instructions
system.cpu0.num_mem_refs                           10                       # number of memory refs
system.cpu0.num_store_insts                         3                       # Number of store instructions
system.cpu0.num_vec_alu_accesses                    0                       # Number of vector alu accesses
system.cpu0.num_vec_insts                           0                       # number of vector instructions
system.cpu0.num_vec_register_reads                  0                       # number of times the vector registers were read
system.cpu0.num_vec_register_writes                 0                       # number of times the vector registers were written
system.cpu0.op_class::No_OpClass                    0      0.00%      0.00% # Class of executed instruction
system.cpu0.op_class::IntAlu                       14     58.33%     58.33% # Class of executed instruction
system.cpu0.op_class::IntMult                       0      0.00%     58.33% # Class of executed instruction
system.cpu0.op_class::IntDiv                        0      0.00%     58.33% # Class of executed instruction
system.cpu0.op_class::FloatAdd                      0      0.00%     58.33% # Class of executed instruction
system.cpu0.op_class::FloatCmp                      0      0.00%     58.33% # Class of executed instruction
system.cpu0.op_class::FloatCvt                      0      0.00%     58.33% # Class of executed instruction
system.cpu0.op_class::FloatMult                     0      0.00%     58.33% # Class of executed instruction
system.cpu0.op_class::FloatMultAcc                  0      0.00%     58.33% # Class of executed instruction
system.cpu0.op_class::FloatDiv                      0      0.00%     58.33% # Class of executed instruction
system.cpu0.op_class::FloatMisc                     0      0.00%     58.33% # Class of executed instruction
system.cpu0.op_class::FloatSqrt                     0      0.00%     58.33% # Class of executed instruction
system.cpu0.op_class::SimdAdd                       0      0.00%     58.33% # Class of executed instruction
system.cpu0.op_class::SimdAddAcc                    0      0.00%     58.33% # Class of executed instruction
system.cpu0.op_class::SimdAlu                       0      0.00%     58.33% # Class of executed instruction
system.cpu0.op_class::SimdCmp                       0      0.00%     58.33% # Class of executed instruction
system.cpu0.op_class::SimdCvt                       0      0.00%     58.33% # Class of executed instruction
system.cpu0.op_class::SimdMisc                      0      0.00%     58.33% # Class of executed instruction
system.cpu0.op_class::SimdMult                      0      0.00%     58.33% # Class of executed instruction
system.cpu0.op_class::SimdMultAcc                   0      0.00%     58.33% # Class of executed instruction
system.cpu0.op_class::SimdShift                     0      0.00%     58.33% # Class of executed instruction
system.cpu0.op_class::SimdShiftAcc                  0      0.00%     58.33% # Class of executed instruction
system.cpu0.op_class::SimdDiv                       0      0.00%     58.33% # Class of executed instruction
system.cpu0.op_class::SimdSqrt                      0      0.00%     58.33% # Class of executed instruction
system.cpu0.op_class::SimdFloatAdd                  0      0.00%     58.33% # Class of executed instruction
system.cpu0.op_class::SimdFloatAlu                  0      0.00%     58.33% # Class of executed instruction
system.cpu0.op_class::SimdFloatCmp                  0      0.00%     58.33% # Class of executed instruction
system.cpu0.op_class::SimdFloatCvt                  0      0.00%     58.33% # Class of executed instruction
system.cpu0.op_class::SimdFloatDiv                  0      0.00%     58.33% # Class of executed instruction
system.cpu0.op_class::SimdFloatMisc                 0      0.00%     58.33% # Class of executed instruction
system.cpu0.op_class::SimdFloatMult                 0      0.00%     58.33% # Class of executed instruction
system.cpu0.op_class::SimdFloatMultAcc              0      0.00%     58.33% # Class of executed instruction
system.cpu0.op_class::SimdFloatSqrt                 0      0.00%     58.33% # Class of executed instruction
system.cpu0.op_class::SimdReduceAdd                 0      0.00%     58.33% # Class of executed instruction
system.cpu0.op_class::SimdReduceAlu                 0      0.00%     58.33% # Class of executed instruction
system.cpu0.op_class::SimdReduceCmp                 0      0.00%     58.33% # Class of executed instruction
system.cpu0.op_class::SimdFloatReduceAdd            0      0.00%     58.33% # Class of executed instruction
system.cpu0.op_class::SimdFloatReduceCmp            0      0.00%     58.33% # Class of executed instruction
system.cpu0.op_class::SimdAes                       0      0.00%     58.33% # Class of executed instruction
system.cpu0.op_class::SimdAesMix                    0      0.00%     58.33% # Class of executed instruction
system.cpu0.op_class::SimdSha1Hash                  0      0.00%     58.33% # Class of executed instruction
system.cpu0.op_class::SimdSha1Hash2                 0      0.00%     58.33% # Class of executed instruction
system.cpu0.op_class::SimdSha256Hash                0      0.00%     58.33% # Class of executed instruction
system.cpu0.op_class::SimdSha256Hash2               0      0.00%     58.33% # Class of executed instruction
system.cpu0.op_class::SimdShaSigma2                 0      0.00%     58.33% # Class of executed instruction
system.cpu0.op_class::SimdShaSigma3                 0      0.00%     58.33% # Class of executed instruction
system.cpu0.op_class::SimdPredAlu                   0      0.00%     58.33% # Class of executed instruction
system.cpu0.op_class::MemRead                       7     29.17%     87.50% # Class of executed instruction
system.cpu0.op_class::MemWrite                      3     12.50%    100.00% # Class of executed instruction
system.cpu0.op_class::FloatMemRead                  0      0.00%    100.00% # Class of executed instruction
system.cpu0.op_class::FloatMemWrite                 0      0.00%    100.00% # Class of executed instruction
system.cpu0.op_class::IprAccess                     0      0.00%    100.00% # Class of executed instruction
system.cpu0.op_class::InstPrefetch                  0      0.00%    100.00% # Class of executed instruction
system.cpu0.op_class::total                        24                       # Class of executed instruction
system.cpu0.workload.numSyscalls                    0                       # Number of system calls
system.cpu1.Branches                                2                       # Number of branches fetched
system.cpu1.committedInsts                         16                       # Number of instructions committed
system.cpu1.committedOps                           24                       # Number of ops (including micro ops) committed
system.cpu1.idle_fraction                           0                       # Percentage of idle cycles
system.cpu1.l2bus.snoop_filter.hit_multi_requests          479                       # Number of requests hitting in the snoop filter with multiple (>1) holders of the requested data.
system.cpu1.l2bus.snoop_filter.hit_multi_snoops          123                       # Number of snoops hitting in the snoop filter with multiple (>1) holders of the requested data.
system.cpu1.l2bus.snoop_filter.hit_single_requests      8455372                       # Number of requests hitting in the snoop filter with a single holder of the requested data.
system.cpu1.l2bus.snoop_filter.hit_single_snoops         3362                       # Number of snoops hitting in the snoop filter with a single holder of the requested data.
system.cpu1.l2bus.snoop_filter.tot_requests     16848956                       # Total number of requests made to the snoop filter.
system.cpu1.l2bus.snoop_filter.tot_snoops         3485                       # Total number of snoops made to the snoop filter.
system.cpu1.mmucache.mmubus.snoop_filter.hit_multi_requests            0                       # Number of requests hitting in the snoop filter with multiple (>1) holders of the requested data.
system.cpu1.mmucache.mmubus.snoop_filter.hit_multi_snoops            0                       # Number of snoops hitting in the snoop filter with multiple (>1) holders of the requested data.
system.cpu1.mmucache.mmubus.snoop_filter.hit_single_requests            0                       # Number of requests hitting in the snoop filter with a single holder of the requested data.
system.cpu1.mmucache.mmubus.snoop_filter.hit_single_snoops            0                       # Number of snoops hitting in the snoop filter with a single holder of the requested data.
system.cpu1.mmucache.mmubus.snoop_filter.tot_requests            0                       # Total number of requests made to the snoop filter.
system.cpu1.mmucache.mmubus.snoop_filter.tot_snoops            0                       # Total number of snoops made to the snoop filter.
system.cpu1.not_idle_fraction                       1                       # Percentage of non-idle cycles
system.cpu1.numCycles                              30                       # number of cpu cycles simulated
system.cpu1.numWorkItemsCompleted                   0                       # number of work items this cpu completed
system.cpu1.numWorkItemsStarted                     0                       # number of work items this cpu started
system.cpu1.num_busy_cycles                        30                       # Number of busy cycles
system.cpu1.num_cc_register_reads                  12                       # number of times the CC registers were read
system.cpu1.num_cc_register_writes                 12                       # number of times the CC registers were written
system.cpu1.num_conditional_control_insts            2                       # number of instructions that are conditional controls
system.cpu1.num_fp_alu_accesses                     0                       # Number of float alu accesses
system.cpu1.num_fp_insts                            0                       # number of float instructions
system.cpu1.num_fp_register_reads                   0                       # number of times the floating registers were read
system.cpu1.num_fp_register_writes                  0                       # number of times the floating registers were written
system.cpu1.num_func_calls                          0                       # number of times a function call or return occured
system.cpu1.num_idle_cycles                         0                       # Number of idle cycles
system.cpu1.num_int_alu_accesses                   24                       # Number of integer alu accesses
system.cpu1.num_int_insts                          24                       # number of integer instructions
system.cpu1.num_int_register_reads                 56                       # number of times the integer registers were read
system.cpu1.num_int_register_writes                19                       # number of times the integer registers were written
system.cpu1.num_load_insts                          7                       # Number of load instructions
system.cpu1.num_mem_refs                           10                       # number of memory refs
system.cpu1.num_store_insts                         3                       # Number of store instructions
system.cpu1.num_vec_alu_accesses                    0                       # Number of vector alu accesses
system.cpu1.num_vec_insts                           0                       # number of vector instructions
system.cpu1.num_vec_register_reads                  0                       # number of times the vector registers were read
system.cpu1.num_vec_register_writes                 0                       # number of times the vector registers were written
system.cpu1.op_class::No_OpClass                    0      0.00%      0.00% # Class of executed instruction
system.cpu1.op_class::IntAlu                       14     58.33%     58.33% # Class of executed instruction
system.cpu1.op_class::IntMult                       0      0.00%     58.33% # Class of executed instruction
system.cpu1.op_class::IntDiv                        0      0.00%     58.33% # Class of executed instruction
system.cpu1.op_class::FloatAdd                      0      0.00%     58.33% # Class of executed instruction
system.cpu1.op_class::FloatCmp                      0      0.00%     58.33% # Class of executed instruction
system.cpu1.op_class::FloatCvt                      0      0.00%     58.33% # Class of executed instruction
system.cpu1.op_class::FloatMult                     0      0.00%     58.33% # Class of executed instruction
system.cpu1.op_class::FloatMultAcc                  0      0.00%     58.33% # Class of executed instruction
system.cpu1.op_class::FloatDiv                      0      0.00%     58.33% # Class of executed instruction
system.cpu1.op_class::FloatMisc                     0      0.00%     58.33% # Class of executed instruction
system.cpu1.op_class::FloatSqrt                     0      0.00%     58.33% # Class of executed instruction
system.cpu1.op_class::SimdAdd                       0      0.00%     58.33% # Class of executed instruction
system.cpu1.op_class::SimdAddAcc                    0      0.00%     58.33% # Class of executed instruction
system.cpu1.op_class::SimdAlu                       0      0.00%     58.33% # Class of executed instruction
system.cpu1.op_class::SimdCmp                       0      0.00%     58.33% # Class of executed instruction
system.cpu1.op_class::SimdCvt                       0      0.00%     58.33% # Class of executed instruction
system.cpu1.op_class::SimdMisc                      0      0.00%     58.33% # Class of executed instruction
system.cpu1.op_class::SimdMult                      0      0.00%     58.33% # Class of executed instruction
system.cpu1.op_class::SimdMultAcc                   0      0.00%     58.33% # Class of executed instruction
system.cpu1.op_class::SimdShift                     0      0.00%     58.33% # Class of executed instruction
system.cpu1.op_class::SimdShiftAcc                  0      0.00%     58.33% # Class of executed instruction
system.cpu1.op_class::SimdDiv                       0      0.00%     58.33% # Class of executed instruction
system.cpu1.op_class::SimdSqrt                      0      0.00%     58.33% # Class of executed instruction
system.cpu1.op_class::SimdFloatAdd                  0      0.00%     58.33% # Class of executed instruction
system.cpu1.op_class::SimdFloatAlu                  0      0.00%     58.33% # Class of executed instruction
system.cpu1.op_class::SimdFloatCmp                  0      0.00%     58.33% # Class of executed instruction
system.cpu1.op_class::SimdFloatCvt                  0      0.00%     58.33% # Class of executed instruction
system.cpu1.op_class::SimdFloatDiv                  0      0.00%     58.33% # Class of executed instruction
system.cpu1.op_class::SimdFloatMisc                 0      0.00%     58.33% # Class of executed instruction
system.cpu1.op_class::SimdFloatMult                 0      0.00%     58.33% # Class of executed instruction
system.cpu1.op_class::SimdFloatMultAcc              0      0.00%     58.33% # Class of executed instruction
system.cpu1.op_class::SimdFloatSqrt                 0      0.00%     58.33% # Class of executed instruction
system.cpu1.op_class::SimdReduceAdd                 0      0.00%     58.33% # Class of executed instruction
system.cpu1.op_class::SimdReduceAlu                 0      0.00%     58.33% # Class of executed instruction
system.cpu1.op_class::SimdReduceCmp                 0      0.00%     58.33% # Class of executed instruction
system.cpu1.op_class::SimdFloatReduceAdd            0      0.00%     58.33% # Class of executed instruction
system.cpu1.op_class::SimdFloatReduceCmp            0      0.00%     58.33% # Class of executed instruction
system.cpu1.op_class::SimdAes                       0      0.00%     58.33% # Class of executed instruction
system.cpu1.op_class::SimdAesMix                    0      0.00%     58.33% # Class of executed instruction
system.cpu1.op_class::SimdSha1Hash                  0      0.00%     58.33% # Class of executed instruction
system.cpu1.op_class::SimdSha1Hash2                 0      0.00%     58.33% # Class of executed instruction
system.cpu1.op_class::SimdSha256Hash                0      0.00%     58.33% # Class of executed instruction
system.cpu1.op_class::SimdSha256Hash2               0      0.00%     58.33% # Class of executed instruction
system.cpu1.op_class::SimdShaSigma2                 0      0.00%     58.33% # Class of executed instruction
system.cpu1.op_class::SimdShaSigma3                 0      0.00%     58.33% # Class of executed instruction
system.cpu1.op_class::SimdPredAlu                   0      0.00%     58.33% # Class of executed instruction
system.cpu1.op_class::MemRead                       7     29.17%     87.50% # Class of executed instruction
system.cpu1.op_class::MemWrite                      3     12.50%    100.00% # Class of executed instruction
system.cpu1.op_class::FloatMemRead                  0      0.00%    100.00% # Class of executed instruction
system.cpu1.op_class::FloatMemWrite                 0      0.00%    100.00% # Class of executed instruction
system.cpu1.op_class::IprAccess                     0      0.00%    100.00% # Class of executed instruction
system.cpu1.op_class::InstPrefetch                  0      0.00%    100.00% # Class of executed instruction
system.cpu1.op_class::total                        24                       # Class of executed instruction
system.cpu1.workload.numSyscalls                    0                       # Number of system calls
system.cpu2.Branches                                2                       # Number of branches fetched
system.cpu2.committedInsts                         16                       # Number of instructions committed
system.cpu2.committedOps                           24                       # Number of ops (including micro ops) committed
system.cpu2.idle_fraction                           0                       # Percentage of idle cycles
system.cpu2.l2bus.snoop_filter.hit_multi_requests          440                       # Number of requests hitting in the snoop filter with multiple (>1) holders of the requested data.
system.cpu2.l2bus.snoop_filter.hit_multi_snoops          125                       # Number of snoops hitting in the snoop filter with multiple (>1) holders of the requested data.
system.cpu2.l2bus.snoop_filter.hit_single_requests      8450198                       # Number of requests hitting in the snoop filter with a single holder of the requested data.
system.cpu2.l2bus.snoop_filter.hit_single_snoops         2579                       # Number of snoops hitting in the snoop filter with a single holder of the requested data.
system.cpu2.l2bus.snoop_filter.tot_requests     16842545                       # Total number of requests made to the snoop filter.
system.cpu2.l2bus.snoop_filter.tot_snoops         2704                       # Total number of snoops made to the snoop filter.
system.cpu2.mmucache.mmubus.snoop_filter.hit_multi_requests            0                       # Number of requests hitting in the snoop filter with multiple (>1) holders of the requested data.
system.cpu2.mmucache.mmubus.snoop_filter.hit_multi_snoops            0                       # Number of snoops hitting in the snoop filter with multiple (>1) holders of the requested data.
system.cpu2.mmucache.mmubus.snoop_filter.hit_single_requests            0                       # Number of requests hitting in the snoop filter with a single holder of the requested data.
system.cpu2.mmucache.mmubus.snoop_filter.hit_single_snoops            0                       # Number of snoops hitting in the snoop filter with a single holder of the requested data.
system.cpu2.mmucache.mmubus.snoop_filter.tot_requests            0                       # Total number of requests made to the snoop filter.
system.cpu2.mmucache.mmubus.snoop_filter.tot_snoops            0                       # Total number of snoops made to the snoop filter.
system.cpu2.not_idle_fraction                       1                       # Percentage of non-idle cycles
system.cpu2.numCycles                              30                       # number of cpu cycles simulated
system.cpu2.numWorkItemsCompleted                   0                       # number of work items this cpu completed
system.cpu2.numWorkItemsStarted                     0                       # number of work items this cpu started
system.cpu2.num_busy_cycles                        30                       # Number of busy cycles
system.cpu2.num_cc_register_reads                  12                       # number of times the CC registers were read
system.cpu2.num_cc_register_writes                 12                       # number of times the CC registers were written
system.cpu2.num_conditional_control_insts            2                       # number of instructions that are conditional controls
system.cpu2.num_fp_alu_accesses                     0                       # Number of float alu accesses
system.cpu2.num_fp_insts                            0                       # number of float instructions
system.cpu2.num_fp_register_reads                   0                       # number of times the floating registers were read
system.cpu2.num_fp_register_writes                  0                       # number of times the floating registers were written
system.cpu2.num_func_calls                          0                       # number of times a function call or return occured
system.cpu2.num_idle_cycles                         0                       # Number of idle cycles
system.cpu2.num_int_alu_accesses                   24                       # Number of integer alu accesses
system.cpu2.num_int_insts                          24                       # number of integer instructions
system.cpu2.num_int_register_reads                 56                       # number of times the integer registers were read
system.cpu2.num_int_register_writes                19                       # number of times the integer registers were written
system.cpu2.num_load_insts                          7                       # Number of load instructions
system.cpu2.num_mem_refs                           10                       # number of memory refs
system.cpu2.num_store_insts                         3                       # Number of store instructions
system.cpu2.num_vec_alu_accesses                    0                       # Number of vector alu accesses
system.cpu2.num_vec_insts                           0                       # number of vector instructions
system.cpu2.num_vec_register_reads                  0                       # number of times the vector registers were read
system.cpu2.num_vec_register_writes                 0                       # number of times the vector registers were written
system.cpu2.op_class::No_OpClass                    0      0.00%      0.00% # Class of executed instruction
system.cpu2.op_class::IntAlu                       14     58.33%     58.33% # Class of executed instruction
system.cpu2.op_class::IntMult                       0      0.00%     58.33% # Class of executed instruction
system.cpu2.op_class::IntDiv                        0      0.00%     58.33% # Class of executed instruction
system.cpu2.op_class::FloatAdd                      0      0.00%     58.33% # Class of executed instruction
system.cpu2.op_class::FloatCmp                      0      0.00%     58.33% # Class of executed instruction
system.cpu2.op_class::FloatCvt                      0      0.00%     58.33% # Class of executed instruction
system.cpu2.op_class::FloatMult                     0      0.00%     58.33% # Class of executed instruction
system.cpu2.op_class::FloatMultAcc                  0      0.00%     58.33% # Class of executed instruction
system.cpu2.op_class::FloatDiv                      0      0.00%     58.33% # Class of executed instruction
system.cpu2.op_class::FloatMisc                     0      0.00%     58.33% # Class of executed instruction
system.cpu2.op_class::FloatSqrt                     0      0.00%     58.33% # Class of executed instruction
system.cpu2.op_class::SimdAdd                       0      0.00%     58.33% # Class of executed instruction
system.cpu2.op_class::SimdAddAcc                    0      0.00%     58.33% # Class of executed instruction
system.cpu2.op_class::SimdAlu                       0      0.00%     58.33% # Class of executed instruction
system.cpu2.op_class::SimdCmp                       0      0.00%     58.33% # Class of executed instruction
system.cpu2.op_class::SimdCvt                       0      0.00%     58.33% # Class of executed instruction
system.cpu2.op_class::SimdMisc                      0      0.00%     58.33% # Class of executed instruction
system.cpu2.op_class::SimdMult                      0      0.00%     58.33% # Class of executed instruction
system.cpu2.op_class::SimdMultAcc                   0      0.00%     58.33% # Class of executed instruction
system.cpu2.op_class::SimdShift                     0      0.00%     58.33% # Class of executed instruction
system.cpu2.op_class::SimdShiftAcc                  0      0.00%     58.33% # Class of executed instruction
system.cpu2.op_class::SimdDiv                       0      0.00%     58.33% # Class of executed instruction
system.cpu2.op_class::SimdSqrt                      0      0.00%     58.33% # Class of executed instruction
system.cpu2.op_class::SimdFloatAdd                  0      0.00%     58.33% # Class of executed instruction
system.cpu2.op_class::SimdFloatAlu                  0      0.00%     58.33% # Class of executed instruction
system.cpu2.op_class::SimdFloatCmp                  0      0.00%     58.33% # Class of executed instruction
system.cpu2.op_class::SimdFloatCvt                  0      0.00%     58.33% # Class of executed instruction
system.cpu2.op_class::SimdFloatDiv                  0      0.00%     58.33% # Class of executed instruction
system.cpu2.op_class::SimdFloatMisc                 0      0.00%     58.33% # Class of executed instruction
system.cpu2.op_class::SimdFloatMult                 0      0.00%     58.33% # Class of executed instruction
system.cpu2.op_class::SimdFloatMultAcc              0      0.00%     58.33% # Class of executed instruction
system.cpu2.op_class::SimdFloatSqrt                 0      0.00%     58.33% # Class of executed instruction
system.cpu2.op_class::SimdReduceAdd                 0      0.00%     58.33% # Class of executed instruction
system.cpu2.op_class::SimdReduceAlu                 0      0.00%     58.33% # Class of executed instruction
system.cpu2.op_class::SimdReduceCmp                 0      0.00%     58.33% # Class of executed instruction
system.cpu2.op_class::SimdFloatReduceAdd            0      0.00%     58.33% # Class of executed instruction
system.cpu2.op_class::SimdFloatReduceCmp            0      0.00%     58.33% # Class of executed instruction
system.cpu2.op_class::SimdAes                       0      0.00%     58.33% # Class of executed instruction
system.cpu2.op_class::SimdAesMix                    0      0.00%     58.33% # Class of executed instruction
system.cpu2.op_class::SimdSha1Hash                  0      0.00%     58.33% # Class of executed instruction
system.cpu2.op_class::SimdSha1Hash2                 0      0.00%     58.33% # Class of executed instruction
system.cpu2.op_class::SimdSha256Hash                0      0.00%     58.33% # Class of executed instruction
system.cpu2.op_class::SimdSha256Hash2               0      0.00%     58.33% # Class of executed instruction
system.cpu2.op_class::SimdShaSigma2                 0      0.00%     58.33% # Class of executed instruction
system.cpu2.op_class::SimdShaSigma3                 0      0.00%     58.33% # Class of executed instruction
system.cpu2.op_class::SimdPredAlu                   0      0.00%     58.33% # Class of executed instruction
system.cpu2.op_class::MemRead                       7     29.17%     87.50% # Class of executed instruction
system.cpu2.op_class::MemWrite                      3     12.50%    100.00% # Class of executed instruction
system.cpu2.op_class::FloatMemRead                  0      0.00%    100.00% # Class of executed instruction
system.cpu2.op_class::FloatMemWrite                 0      0.00%    100.00% # Class of executed instruction
system.cpu2.op_class::IprAccess                     0      0.00%    100.00% # Class of executed instruction
system.cpu2.op_class::InstPrefetch                  0      0.00%    100.00% # Class of executed instruction
system.cpu2.op_class::total                        24                       # Class of executed instruction
system.cpu2.workload.numSyscalls                    0                       # Number of system calls
system.cpu3.Branches                                2                       # Number of branches fetched
system.cpu3.committedInsts                         16                       # Number of instructions committed
system.cpu3.committedOps                           24                       # Number of ops (including micro ops) committed
system.cpu3.idle_fraction                           0                       # Percentage of idle cycles
system.cpu3.l2bus.snoop_filter.hit_multi_requests          467                       # Number of requests hitting in the snoop filter with multiple (>1) holders of the requested data.
system.cpu3.l2bus.snoop_filter.hit_multi_snoops          120                       # Number of snoops hitting in the snoop filter with multiple (>1) holders of the requested data.
system.cpu3.l2bus.snoop_filter.hit_single_requests      8437184                       # Number of requests hitting in the snoop filter with a single holder of the requested data.
system.cpu3.l2bus.snoop_filter.hit_single_snoops         3342                       # Number of snoops hitting in the snoop filter with a single holder of the requested data.
system.cpu3.l2bus.snoop_filter.tot_requests     16812848                       # Total number of requests made to the snoop filter.
system.cpu3.l2bus.snoop_filter.tot_snoops         3462                       # Total number of snoops made to the snoop filter.
system.cpu3.mmucache.mmubus.snoop_filter.hit_multi_requests            0                       # Number of requests hitting in the snoop filter with multiple (>1) holders of the requested data.
system.cpu3.mmucache.mmubus.snoop_filter.hit_multi_snoops            0                       # Number of snoops hitting in the snoop filter with multiple (>1) holders of the requested data.
system.cpu3.mmucache.mmubus.snoop_filter.hit_single_requests            0                       # Number of requests hitting in the snoop filter with a single holder of the requested data.
system.cpu3.mmucache.mmubus.snoop_filter.hit_single_snoops            0                       # Number of snoops hitting in the snoop filter with a single holder of the requested data.
system.cpu3.mmucache.mmubus.snoop_filter.tot_requests            0                       # Total number of requests made to the snoop filter.
system.cpu3.mmucache.mmubus.snoop_filter.tot_snoops            0                       # Total number of snoops made to the snoop filter.
system.cpu3.not_idle_fraction                       1                       # Percentage of non-idle cycles
system.cpu3.numCycles                              30                       # number of cpu cycles simulated
system.cpu3.numWorkItemsCompleted                   0                       # number of work items this cpu completed
system.cpu3.numWorkItemsStarted                     0                       # number of work items this cpu started
system.cpu3.num_busy_cycles                        30                       # Number of busy cycles
system.cpu3.num_cc_register_reads                  12                       # number of times the CC registers were read
system.cpu3.num_cc_register_writes                 12                       # number of times the CC registers were written
system.cpu3.num_conditional_control_insts            2                       # number of instructions that are conditional controls
system.cpu3.num_fp_alu_accesses                     0                       # Number of float alu accesses
system.cpu3.num_fp_insts                            0                       # number of float instructions
system.cpu3.num_fp_register_reads                   0                       # number of times the floating registers were read
system.cpu3.num_fp_register_writes                  0                       # number of times the floating registers were written
system.cpu3.num_func_calls                          0                       # number of times a function call or return occured
system.cpu3.num_idle_cycles                         0                       # Number of idle cycles
system.cpu3.num_int_alu_accesses                   24                       # Number of integer alu accesses
system.cpu3.num_int_insts                          24                       # number of integer instructions
system.cpu3.num_int_register_reads                 56                       # number of times the integer registers were read
system.cpu3.num_int_register_writes                19                       # number of times the integer registers were written
system.cpu3.num_load_insts                          7                       # Number of load instructions
system.cpu3.num_mem_refs                           10                       # number of memory refs
system.cpu3.num_store_insts                         3                       # Number of store instructions
system.cpu3.num_vec_alu_accesses                    0                       # Number of vector alu accesses
system.cpu3.num_vec_insts                           0                       # number of vector instructions
system.cpu3.num_vec_register_reads                  0                       # number of times the vector registers were read
system.cpu3.num_vec_register_writes                 0                       # number of times the vector registers were written
system.cpu3.op_class::No_OpClass                    0      0.00%      0.00% # Class of executed instruction
system.cpu3.op_class::IntAlu                       14     58.33%     58.33% # Class of executed instruction
system.cpu3.op_class::IntMult                       0      0.00%     58.33% # Class of executed instruction
system.cpu3.op_class::IntDiv                        0      0.00%     58.33% # Class of executed instruction
system.cpu3.op_class::FloatAdd                      0      0.00%     58.33% # Class of executed instruction
system.cpu3.op_class::FloatCmp                      0      0.00%     58.33% # Class of executed instruction
system.cpu3.op_class::FloatCvt                      0      0.00%     58.33% # Class of executed instruction
system.cpu3.op_class::FloatMult                     0      0.00%     58.33% # Class of executed instruction
system.cpu3.op_class::FloatMultAcc                  0      0.00%     58.33% # Class of executed instruction
system.cpu3.op_class::FloatDiv                      0      0.00%     58.33% # Class of executed instruction
system.cpu3.op_class::FloatMisc                     0      0.00%     58.33% # Class of executed instruction
system.cpu3.op_class::FloatSqrt                     0      0.00%     58.33% # Class of executed instruction
system.cpu3.op_class::SimdAdd                       0      0.00%     58.33% # Class of executed instruction
system.cpu3.op_class::SimdAddAcc                    0      0.00%     58.33% # Class of executed instruction
system.cpu3.op_class::SimdAlu                       0      0.00%     58.33% # Class of executed instruction
system.cpu3.op_class::SimdCmp                       0      0.00%     58.33% # Class of executed instruction
system.cpu3.op_class::SimdCvt                       0      0.00%     58.33% # Class of executed instruction
system.cpu3.op_class::SimdMisc                      0      0.00%     58.33% # Class of executed instruction
system.cpu3.op_class::SimdMult                      0      0.00%     58.33% # Class of executed instruction
system.cpu3.op_class::SimdMultAcc                   0      0.00%     58.33% # Class of executed instruction
system.cpu3.op_class::SimdShift                     0      0.00%     58.33% # Class of executed instruction
system.cpu3.op_class::SimdShiftAcc                  0      0.00%     58.33% # Class of executed instruction
system.cpu3.op_class::SimdDiv                       0      0.00%     58.33% # Class of executed instruction
system.cpu3.op_class::SimdSqrt                      0      0.00%     58.33% # Class of executed instruction
system.cpu3.op_class::SimdFloatAdd                  0      0.00%     58.33% # Class of executed instruction
system.cpu3.op_class::SimdFloatAlu                  0      0.00%     58.33% # Class of executed instruction
system.cpu3.op_class::SimdFloatCmp                  0      0.00%     58.33% # Class of executed instruction
system.cpu3.op_class::SimdFloatCvt                  0      0.00%     58.33% # Class of executed instruction
system.cpu3.op_class::SimdFloatDiv                  0      0.00%     58.33% # Class of executed instruction
system.cpu3.op_class::SimdFloatMisc                 0      0.00%     58.33% # Class of executed instruction
system.cpu3.op_class::SimdFloatMult                 0      0.00%     58.33% # Class of executed instruction
system.cpu3.op_class::SimdFloatMultAcc              0      0.00%     58.33% # Class of executed instruction
system.cpu3.op_class::SimdFloatSqrt                 0      0.00%     58.33% # Class of executed instruction
system.cpu3.op_class::SimdReduceAdd                 0      0.00%     58.33% # Class of executed instruction
system.cpu3.op_class::SimdReduceAlu                 0      0.00%     58.33% # Class of executed instruction
system.cpu3.op_class::SimdReduceCmp                 0      0.00%     58.33% # Class of executed instruction
system.cpu3.op_class::SimdFloatReduceAdd            0      0.00%     58.33% # Class of executed instruction
system.cpu3.op_class::SimdFloatReduceCmp            0      0.00%     58.33% # Class of executed instruction
system.cpu3.op_class::SimdAes                       0      0.00%     58.33% # Class of executed instruction
system.cpu3.op_class::SimdAesMix                    0      0.00%     58.33% # Class of executed instruction
system.cpu3.op_class::SimdSha1Hash                  0      0.00%     58.33% # Class of executed instruction
system.cpu3.op_class::SimdSha1Hash2                 0      0.00%     58.33% # Class of executed instruction
system.cpu3.op_class::SimdSha256Hash                0      0.00%     58.33% # Class of executed instruction
system.cpu3.op_class::SimdSha256Hash2               0      0.00%     58.33% # Class of executed instruction
system.cpu3.op_class::SimdShaSigma2                 0      0.00%     58.33% # Class of executed instruction
system.cpu3.op_class::SimdShaSigma3                 0      0.00%     58.33% # Class of executed instruction
system.cpu3.op_class::SimdPredAlu                   0      0.00%     58.33% # Class of executed instruction
system.cpu3.op_class::MemRead                       7     29.17%     87.50% # Class of executed instruction
system.cpu3.op_class::MemWrite                      3     12.50%    100.00% # Class of executed instruction
system.cpu3.op_class::FloatMemRead                  0      0.00%    100.00% # Class of executed instruction
system.cpu3.op_class::FloatMemWrite                 0      0.00%    100.00% # Class of executed instruction
system.cpu3.op_class::IprAccess                     0      0.00%    100.00% # Class of executed instruction
system.cpu3.op_class::InstPrefetch                  0      0.00%    100.00% # Class of executed instruction
system.cpu3.op_class::total                        24                       # Class of executed instruction
system.cpu3.workload.numSyscalls                    0                       # Number of system calls
system.l3bus.snoop_filter.hit_multi_requests            0                       # Number of requests hitting in the snoop filter with multiple (>1) holders of the requested data.
system.l3bus.snoop_filter.hit_multi_snoops            0                       # Number of snoops hitting in the snoop filter with multiple (>1) holders of the requested data.
system.l3bus.snoop_filter.hit_single_requests     18126356                       # Number of requests hitting in the snoop filter with a single holder of the requested data.
system.l3bus.snoop_filter.hit_single_snoops            0                       # Number of snoops hitting in the snoop filter with a single holder of the requested data.
system.l3bus.snoop_filter.tot_requests       36267454                       # Total number of requests made to the snoop filter.
system.l3bus.snoop_filter.tot_snoops                0                       # Total number of snoops made to the snoop filter.
system.membus.snoop_filter.hit_multi_requests            0                       # Number of requests hitting in the snoop filter with multiple (>1) holders of the requested data.
system.membus.snoop_filter.hit_multi_snoops            0                       # Number of snoops hitting in the snoop filter with multiple (>1) holders of the requested data.
system.membus.snoop_filter.hit_single_requests      6811337                       # Number of requests hitting in the snoop filter with a single holder of the requested data.
system.membus.snoop_filter.hit_single_snoops            0                       # Number of snoops hitting in the snoop filter with a single holder of the requested data.
system.membus.snoop_filter.tot_requests      13693786                       # Total number of requests made to the snoop filter.
system.membus.snoop_filter.tot_snoops               0                       # Total number of snoops made to the snoop filter.
system.switch_cpus0.cc_regfile_reads        380624833                       # number of cc regfile reads
system.switch_cpus0.cc_regfile_writes       155474744                       # number of cc regfile writes
system.switch_cpus0.committedInsts          250000002                       # Number of Instructions Simulated
system.switch_cpus0.committedOps            430604550                       # Number of Ops (including micro ops) Simulated
system.switch_cpus0.cpi                      1.683798                       # CPI: Cycles Per Instruction
system.switch_cpus0.cpi_total                1.683798                       # CPI: Total CPI of All Threads
system.switch_cpus0.fp_regfile_writes              56                       # number of floating regfile writes
system.switch_cpus0.idleCycles                   8672                       # Total number of cycles that the CPU has spent unscheduled due to idling
system.switch_cpus0.iew.branchMispredicts      5979186                       # Number of branch mispredicts detected at execute
system.switch_cpus0.iew.exec_branches       100713344                       # Number of branches executed
system.switch_cpus0.iew.exec_nop                    0                       # number of nop insts executed
system.switch_cpus0.iew.exec_rate            1.645206                       # Inst execution rate
system.switch_cpus0.iew.exec_refs           171851701                       # number of memory reference insts executed
system.switch_cpus0.iew.exec_stores          35858954                       # Number of stores executed
system.switch_cpus0.iew.exec_swp                    0                       # number of swp insts executed
system.switch_cpus0.iew.iewBlockCycles      180787832                       # Number of cycles IEW is blocking
system.switch_cpus0.iew.iewDispLoadInsts    156549739                       # Number of dispatched load instructions
system.switch_cpus0.iew.iewDispNonSpecInsts            0                       # Number of dispatched non-speculative instructions
system.switch_cpus0.iew.iewDispSquashedInsts       209620                       # Number of squashed instructions skipped by dispatch
system.switch_cpus0.iew.iewDispStoreInsts     40714150                       # Number of dispatched store instructions
system.switch_cpus0.iew.iewDispatchedInsts    790995374                       # Number of instructions dispatched to IQ
system.switch_cpus0.iew.iewExecLoadInsts    135992747                       # Number of load instructions executed
system.switch_cpus0.iew.iewExecSquashedInsts     17727218                       # Number of squashed instructions skipped in execute
system.switch_cpus0.iew.iewExecutedInsts    692548727                       # Number of executed instructions
system.switch_cpus0.iew.iewIQFullEvents        807074                       # Number of times the IQ has become full, causing a stall
system.switch_cpus0.iew.iewIdleCycles               0                       # Number of cycles IEW is idle
system.switch_cpus0.iew.iewLSQFullEvents     17322963                       # Number of times the LSQ has become full, causing a stall
system.switch_cpus0.iew.iewSquashCycles       5786037                       # Number of cycles IEW is squashing
system.switch_cpus0.iew.iewUnblockCycles     18788139                       # Number of cycles IEW is unblocking
system.switch_cpus0.iew.memOrderViolationEvents        22627                       # Number of memory order violations
system.switch_cpus0.iew.predictedNotTakenIncorrect      3271328                       # Number of branches that were predicted not taken incorrectly
system.switch_cpus0.iew.predictedTakenIncorrect      2707858                       # Number of branches that were predicted taken incorrectly
system.switch_cpus0.iew.wb_consumers        722640646                       # num instructions consuming a value
system.switch_cpus0.iew.wb_count            684041672                       # cumulative count of insts written-back
system.switch_cpus0.iew.wb_fanout            0.655452                       # average fanout of values written-back
system.switch_cpus0.iew.wb_producers        473656304                       # num instructions producing a value
system.switch_cpus0.iew.wb_rate              1.624997                       # insts written-back per cycle
system.switch_cpus0.iew.wb_sent             688714821                       # cumulative count of insts sent to commit
system.switch_cpus0.int_regfile_reads       991299303                       # number of integer regfile reads
system.switch_cpus0.int_regfile_writes      556178390                       # number of integer regfile writes
system.switch_cpus0.ipc                      0.593896                       # IPC: Instructions Per Cycle
system.switch_cpus0.ipc_total                0.593896                       # IPC: Total IPC of All Threads
system.switch_cpus0.iq.FU_type_0::No_OpClass       314029      0.04%      0.04% # Type of FU issued
system.switch_cpus0.iq.FU_type_0::IntAlu    528098287     74.35%     74.40% # Type of FU issued
system.switch_cpus0.iq.FU_type_0::IntMult       729645      0.10%     74.50% # Type of FU issued
system.switch_cpus0.iq.FU_type_0::IntDiv      1849249      0.26%     74.76% # Type of FU issued
system.switch_cpus0.iq.FU_type_0::FloatAdd            0      0.00%     74.76% # Type of FU issued
system.switch_cpus0.iq.FU_type_0::FloatCmp            0      0.00%     74.76% # Type of FU issued
system.switch_cpus0.iq.FU_type_0::FloatCvt            0      0.00%     74.76% # Type of FU issued
system.switch_cpus0.iq.FU_type_0::FloatMult            0      0.00%     74.76% # Type of FU issued
system.switch_cpus0.iq.FU_type_0::FloatMultAcc            0      0.00%     74.76% # Type of FU issued
system.switch_cpus0.iq.FU_type_0::FloatDiv            0      0.00%     74.76% # Type of FU issued
system.switch_cpus0.iq.FU_type_0::FloatMisc            0      0.00%     74.76% # Type of FU issued
system.switch_cpus0.iq.FU_type_0::FloatSqrt            0      0.00%     74.76% # Type of FU issued
system.switch_cpus0.iq.FU_type_0::SimdAdd            0      0.00%     74.76% # Type of FU issued
system.switch_cpus0.iq.FU_type_0::SimdAddAcc            0      0.00%     74.76% # Type of FU issued
system.switch_cpus0.iq.FU_type_0::SimdAlu            0      0.00%     74.76% # Type of FU issued
system.switch_cpus0.iq.FU_type_0::SimdCmp            0      0.00%     74.76% # Type of FU issued
system.switch_cpus0.iq.FU_type_0::SimdCvt            0      0.00%     74.76% # Type of FU issued
system.switch_cpus0.iq.FU_type_0::SimdMisc            0      0.00%     74.76% # Type of FU issued
system.switch_cpus0.iq.FU_type_0::SimdMult            0      0.00%     74.76% # Type of FU issued
system.switch_cpus0.iq.FU_type_0::SimdMultAcc            0      0.00%     74.76% # Type of FU issued
system.switch_cpus0.iq.FU_type_0::SimdShift            0      0.00%     74.76% # Type of FU issued
system.switch_cpus0.iq.FU_type_0::SimdShiftAcc            0      0.00%     74.76% # Type of FU issued
system.switch_cpus0.iq.FU_type_0::SimdDiv            0      0.00%     74.76% # Type of FU issued
system.switch_cpus0.iq.FU_type_0::SimdSqrt            0      0.00%     74.76% # Type of FU issued
system.switch_cpus0.iq.FU_type_0::SimdFloatAdd            0      0.00%     74.76% # Type of FU issued
system.switch_cpus0.iq.FU_type_0::SimdFloatAlu            0      0.00%     74.76% # Type of FU issued
system.switch_cpus0.iq.FU_type_0::SimdFloatCmp            0      0.00%     74.76% # Type of FU issued
system.switch_cpus0.iq.FU_type_0::SimdFloatCvt            0      0.00%     74.76% # Type of FU issued
system.switch_cpus0.iq.FU_type_0::SimdFloatDiv            0      0.00%     74.76% # Type of FU issued
system.switch_cpus0.iq.FU_type_0::SimdFloatMisc            0      0.00%     74.76% # Type of FU issued
system.switch_cpus0.iq.FU_type_0::SimdFloatMult            0      0.00%     74.76% # Type of FU issued
system.switch_cpus0.iq.FU_type_0::SimdFloatMultAcc            0      0.00%     74.76% # Type of FU issued
system.switch_cpus0.iq.FU_type_0::SimdFloatSqrt            0      0.00%     74.76% # Type of FU issued
system.switch_cpus0.iq.FU_type_0::SimdReduceAdd            0      0.00%     74.76% # Type of FU issued
system.switch_cpus0.iq.FU_type_0::SimdReduceAlu            0      0.00%     74.76% # Type of FU issued
system.switch_cpus0.iq.FU_type_0::SimdReduceCmp            0      0.00%     74.76% # Type of FU issued
system.switch_cpus0.iq.FU_type_0::SimdFloatReduceAdd            0      0.00%     74.76% # Type of FU issued
system.switch_cpus0.iq.FU_type_0::SimdFloatReduceCmp            0      0.00%     74.76% # Type of FU issued
system.switch_cpus0.iq.FU_type_0::SimdAes            0      0.00%     74.76% # Type of FU issued
system.switch_cpus0.iq.FU_type_0::SimdAesMix            0      0.00%     74.76% # Type of FU issued
system.switch_cpus0.iq.FU_type_0::SimdSha1Hash            0      0.00%     74.76% # Type of FU issued
system.switch_cpus0.iq.FU_type_0::SimdSha1Hash2            0      0.00%     74.76% # Type of FU issued
system.switch_cpus0.iq.FU_type_0::SimdSha256Hash            0      0.00%     74.76% # Type of FU issued
system.switch_cpus0.iq.FU_type_0::SimdSha256Hash2            0      0.00%     74.76% # Type of FU issued
system.switch_cpus0.iq.FU_type_0::SimdShaSigma2            0      0.00%     74.76% # Type of FU issued
system.switch_cpus0.iq.FU_type_0::SimdShaSigma3            0      0.00%     74.76% # Type of FU issued
system.switch_cpus0.iq.FU_type_0::SimdPredAlu            0      0.00%     74.76% # Type of FU issued
system.switch_cpus0.iq.FU_type_0::MemRead    141976902     19.99%     94.75% # Type of FU issued
system.switch_cpus0.iq.FU_type_0::MemWrite     37307839      5.25%    100.00% # Type of FU issued
system.switch_cpus0.iq.FU_type_0::FloatMemRead            0      0.00%    100.00% # Type of FU issued
system.switch_cpus0.iq.FU_type_0::FloatMemWrite            0      0.00%    100.00% # Type of FU issued
system.switch_cpus0.iq.FU_type_0::IprAccess            0      0.00%    100.00% # Type of FU issued
system.switch_cpus0.iq.FU_type_0::InstPrefetch            0      0.00%    100.00% # Type of FU issued
system.switch_cpus0.iq.FU_type_0::total     710275951                       # Type of FU issued
system.switch_cpus0.iq.fp_alu_accesses              0                       # Number of floating point alu accesses
system.switch_cpus0.iq.fp_inst_queue_reads            0                       # Number of floating instruction queue reads
system.switch_cpus0.iq.fp_inst_queue_wakeup_accesses            0                       # Number of floating instruction queue wakeup accesses
system.switch_cpus0.iq.fp_inst_queue_writes            0                       # Number of floating instruction queue writes
system.switch_cpus0.iq.fu_busy_cnt           13694065                       # FU busy when requested
system.switch_cpus0.iq.fu_busy_rate          0.019280                       # FU busy rate (busy events/executed inst)
system.switch_cpus0.iq.fu_full::No_OpClass            0      0.00%      0.00% # attempts to use FU when none available
system.switch_cpus0.iq.fu_full::IntAlu       11955202     87.30%     87.30% # attempts to use FU when none available
system.switch_cpus0.iq.fu_full::IntMult             0      0.00%     87.30% # attempts to use FU when none available
system.switch_cpus0.iq.fu_full::IntDiv              0      0.00%     87.30% # attempts to use FU when none available
system.switch_cpus0.iq.fu_full::FloatAdd            0      0.00%     87.30% # attempts to use FU when none available
system.switch_cpus0.iq.fu_full::FloatCmp            0      0.00%     87.30% # attempts to use FU when none available
system.switch_cpus0.iq.fu_full::FloatCvt            0      0.00%     87.30% # attempts to use FU when none available
system.switch_cpus0.iq.fu_full::FloatMult            0      0.00%     87.30% # attempts to use FU when none available
system.switch_cpus0.iq.fu_full::FloatMultAcc            0      0.00%     87.30% # attempts to use FU when none available
system.switch_cpus0.iq.fu_full::FloatDiv            0      0.00%     87.30% # attempts to use FU when none available
system.switch_cpus0.iq.fu_full::FloatMisc            0      0.00%     87.30% # attempts to use FU when none available
system.switch_cpus0.iq.fu_full::FloatSqrt            0      0.00%     87.30% # attempts to use FU when none available
system.switch_cpus0.iq.fu_full::SimdAdd             0      0.00%     87.30% # attempts to use FU when none available
system.switch_cpus0.iq.fu_full::SimdAddAcc            0      0.00%     87.30% # attempts to use FU when none available
system.switch_cpus0.iq.fu_full::SimdAlu             0      0.00%     87.30% # attempts to use FU when none available
system.switch_cpus0.iq.fu_full::SimdCmp             0      0.00%     87.30% # attempts to use FU when none available
system.switch_cpus0.iq.fu_full::SimdCvt             0      0.00%     87.30% # attempts to use FU when none available
system.switch_cpus0.iq.fu_full::SimdMisc            0      0.00%     87.30% # attempts to use FU when none available
system.switch_cpus0.iq.fu_full::SimdMult            0      0.00%     87.30% # attempts to use FU when none available
system.switch_cpus0.iq.fu_full::SimdMultAcc            0      0.00%     87.30% # attempts to use FU when none available
system.switch_cpus0.iq.fu_full::SimdShift            0      0.00%     87.30% # attempts to use FU when none available
system.switch_cpus0.iq.fu_full::SimdShiftAcc            0      0.00%     87.30% # attempts to use FU when none available
system.switch_cpus0.iq.fu_full::SimdDiv             0      0.00%     87.30% # attempts to use FU when none available
system.switch_cpus0.iq.fu_full::SimdSqrt            0      0.00%     87.30% # attempts to use FU when none available
system.switch_cpus0.iq.fu_full::SimdFloatAdd            0      0.00%     87.30% # attempts to use FU when none available
system.switch_cpus0.iq.fu_full::SimdFloatAlu            0      0.00%     87.30% # attempts to use FU when none available
system.switch_cpus0.iq.fu_full::SimdFloatCmp            0      0.00%     87.30% # attempts to use FU when none available
system.switch_cpus0.iq.fu_full::SimdFloatCvt            0      0.00%     87.30% # attempts to use FU when none available
system.switch_cpus0.iq.fu_full::SimdFloatDiv            0      0.00%     87.30% # attempts to use FU when none available
system.switch_cpus0.iq.fu_full::SimdFloatMisc            0      0.00%     87.30% # attempts to use FU when none available
system.switch_cpus0.iq.fu_full::SimdFloatMult            0      0.00%     87.30% # attempts to use FU when none available
system.switch_cpus0.iq.fu_full::SimdFloatMultAcc            0      0.00%     87.30% # attempts to use FU when none available
system.switch_cpus0.iq.fu_full::SimdFloatSqrt            0      0.00%     87.30% # attempts to use FU when none available
system.switch_cpus0.iq.fu_full::SimdReduceAdd            0      0.00%     87.30% # attempts to use FU when none available
system.switch_cpus0.iq.fu_full::SimdReduceAlu            0      0.00%     87.30% # attempts to use FU when none available
system.switch_cpus0.iq.fu_full::SimdReduceCmp            0      0.00%     87.30% # attempts to use FU when none available
system.switch_cpus0.iq.fu_full::SimdFloatReduceAdd            0      0.00%     87.30% # attempts to use FU when none available
system.switch_cpus0.iq.fu_full::SimdFloatReduceCmp            0      0.00%     87.30% # attempts to use FU when none available
system.switch_cpus0.iq.fu_full::SimdAes             0      0.00%     87.30% # attempts to use FU when none available
system.switch_cpus0.iq.fu_full::SimdAesMix            0      0.00%     87.30% # attempts to use FU when none available
system.switch_cpus0.iq.fu_full::SimdSha1Hash            0      0.00%     87.30% # attempts to use FU when none available
system.switch_cpus0.iq.fu_full::SimdSha1Hash2            0      0.00%     87.30% # attempts to use FU when none available
system.switch_cpus0.iq.fu_full::SimdSha256Hash            0      0.00%     87.30% # attempts to use FU when none available
system.switch_cpus0.iq.fu_full::SimdSha256Hash2            0      0.00%     87.30% # attempts to use FU when none available
system.switch_cpus0.iq.fu_full::SimdShaSigma2            0      0.00%     87.30% # attempts to use FU when none available
system.switch_cpus0.iq.fu_full::SimdShaSigma3            0      0.00%     87.30% # attempts to use FU when none available
system.switch_cpus0.iq.fu_full::SimdPredAlu            0      0.00%     87.30% # attempts to use FU when none available
system.switch_cpus0.iq.fu_full::MemRead       1611415     11.77%     99.07% # attempts to use FU when none available
system.switch_cpus0.iq.fu_full::MemWrite       127448      0.93%    100.00% # attempts to use FU when none available
system.switch_cpus0.iq.fu_full::FloatMemRead            0      0.00%    100.00% # attempts to use FU when none available
system.switch_cpus0.iq.fu_full::FloatMemWrite            0      0.00%    100.00% # attempts to use FU when none available
system.switch_cpus0.iq.fu_full::IprAccess            0      0.00%    100.00% # attempts to use FU when none available
system.switch_cpus0.iq.fu_full::InstPrefetch            0      0.00%    100.00% # attempts to use FU when none available
system.switch_cpus0.iq.int_alu_accesses     723655987                       # Number of integer alu accesses
system.switch_cpus0.iq.int_inst_queue_reads   1857810497                       # Number of integer instruction queue reads
system.switch_cpus0.iq.int_inst_queue_wakeup_accesses    684041672                       # Number of integer instruction queue wakeup accesses
system.switch_cpus0.iq.int_inst_queue_writes   1151407624                       # Number of integer instruction queue writes
system.switch_cpus0.iq.iqInstsAdded         790995374                       # Number of instructions added to the IQ (excludes non-spec)
system.switch_cpus0.iq.iqInstsIssued        710275951                       # Number of instructions issued
system.switch_cpus0.iq.iqSquashedInstsExamined    360390751                       # Number of squashed instructions iterated over during squash; mainly for profiling
system.switch_cpus0.iq.iqSquashedInstsIssued      2623730                       # Number of squashed instructions issued
system.switch_cpus0.iq.iqSquashedOperandsExamined    383433379                       # Number of squashed operands that are examined and possibly removed from graph
system.switch_cpus0.iq.issued_per_cycle::samples    420940806                       # Number of insts issued each cycle
system.switch_cpus0.iq.issued_per_cycle::mean     1.687354                       # Number of insts issued each cycle
system.switch_cpus0.iq.issued_per_cycle::stdev     2.649651                       # Number of insts issued each cycle
system.switch_cpus0.iq.issued_per_cycle::underflows            0      0.00%      0.00% # Number of insts issued each cycle
system.switch_cpus0.iq.issued_per_cycle::0    268348490     63.75%     63.75% # Number of insts issued each cycle
system.switch_cpus0.iq.issued_per_cycle::1     23621210      5.61%     69.36% # Number of insts issued each cycle
system.switch_cpus0.iq.issued_per_cycle::2     15874224      3.77%     73.13% # Number of insts issued each cycle
system.switch_cpus0.iq.issued_per_cycle::3     10721427      2.55%     75.68% # Number of insts issued each cycle
system.switch_cpus0.iq.issued_per_cycle::4     15819834      3.76%     79.44% # Number of insts issued each cycle
system.switch_cpus0.iq.issued_per_cycle::5     20495491      4.87%     84.31% # Number of insts issued each cycle
system.switch_cpus0.iq.issued_per_cycle::6     24618779      5.85%     90.16% # Number of insts issued each cycle
system.switch_cpus0.iq.issued_per_cycle::7     22258261      5.29%     95.44% # Number of insts issued each cycle
system.switch_cpus0.iq.issued_per_cycle::8     19183090      4.56%    100.00% # Number of insts issued each cycle
system.switch_cpus0.iq.issued_per_cycle::overflows            0      0.00%    100.00% # Number of insts issued each cycle
system.switch_cpus0.iq.issued_per_cycle::min_value            0                       # Number of insts issued each cycle
system.switch_cpus0.iq.issued_per_cycle::max_value            8                       # Number of insts issued each cycle
system.switch_cpus0.iq.issued_per_cycle::total    420940806                       # Number of insts issued each cycle
system.switch_cpus0.iq.rate                  1.687319                       # Inst issue rate
system.switch_cpus0.iq.vec_alu_accesses             0                       # Number of vector alu accesses
system.switch_cpus0.iq.vec_inst_queue_reads            0                       # Number of vector instruction queue reads
system.switch_cpus0.iq.vec_inst_queue_wakeup_accesses            0                       # Number of vector instruction queue wakeup accesses
system.switch_cpus0.iq.vec_inst_queue_writes            0                       # Number of vector instruction queue writes
system.switch_cpus0.memDep0.conflictingLoads     15090131                       # Number of conflicting loads.
system.switch_cpus0.memDep0.conflictingStores      4949559                       # Number of conflicting stores.
system.switch_cpus0.memDep0.insertedLoads    156549739                       # Number of loads inserted to the mem dependence unit.
system.switch_cpus0.memDep0.insertedStores     40714150                       # Number of stores inserted to the mem dependence unit.
system.switch_cpus0.misc_regfile_reads      372928436                       # number of misc regfile reads
system.switch_cpus0.misc_regfile_writes             1                       # number of misc regfile writes
system.switch_cpus0.numCycles               420949478                       # number of cpu cycles simulated
system.switch_cpus0.numWorkItemsCompleted            0                       # number of work items this cpu completed
system.switch_cpus0.numWorkItemsStarted             0                       # number of work items this cpu started
system.switch_cpus0.timesIdled                     56                       # Number of times that the entire CPU went into an idle state and unscheduled itself
system.switch_cpus1.cc_regfile_reads        380318571                       # number of cc regfile reads
system.switch_cpus1.cc_regfile_writes       155336958                       # number of cc regfile writes
system.switch_cpus1.committedInsts          249724134                       # Number of Instructions Simulated
system.switch_cpus1.committedOps            430133986                       # Number of Ops (including micro ops) Simulated
system.switch_cpus1.cpi                      1.685658                       # CPI: Cycles Per Instruction
system.switch_cpus1.cpi_total                1.685658                       # CPI: Total CPI of All Threads
system.switch_cpus1.fp_regfile_writes              56                       # number of floating regfile writes
system.switch_cpus1.idleCycles                   8244                       # Total number of cycles that the CPU has spent unscheduled due to idling
system.switch_cpus1.iew.branchMispredicts      5976009                       # Number of branch mispredicts detected at execute
system.switch_cpus1.iew.exec_branches       100631192                       # Number of branches executed
system.switch_cpus1.iew.exec_nop                    0                       # number of nop insts executed
system.switch_cpus1.iew.exec_rate            1.643878                       # Inst execution rate
system.switch_cpus1.iew.exec_refs           171686814                       # number of memory reference insts executed
system.switch_cpus1.iew.exec_stores          35819238                       # Number of stores executed
system.switch_cpus1.iew.exec_swp                    0                       # number of swp insts executed
system.switch_cpus1.iew.iewBlockCycles      181634520                       # Number of cycles IEW is blocking
system.switch_cpus1.iew.iewDispLoadInsts    156436162                       # Number of dispatched load instructions
system.switch_cpus1.iew.iewDispNonSpecInsts            0                       # Number of dispatched non-speculative instructions
system.switch_cpus1.iew.iewDispSquashedInsts       209690                       # Number of squashed instructions skipped by dispatch
system.switch_cpus1.iew.iewDispStoreInsts     40681178                       # Number of dispatched store instructions
system.switch_cpus1.iew.iewDispatchedInsts    790442101                       # Number of instructions dispatched to IQ
system.switch_cpus1.iew.iewExecLoadInsts    135867576                       # Number of load instructions executed
system.switch_cpus1.iew.iewExecSquashedInsts     17714674                       # Number of squashed instructions skipped in execute
system.switch_cpus1.iew.iewExecutedInsts    691989604                       # Number of executed instructions
system.switch_cpus1.iew.iewIQFullEvents        813074                       # Number of times the IQ has become full, causing a stall
system.switch_cpus1.iew.iewIdleCycles               0                       # Number of cycles IEW is idle
system.switch_cpus1.iew.iewLSQFullEvents     17021452                       # Number of times the LSQ has become full, causing a stall
system.switch_cpus1.iew.iewSquashCycles       5782378                       # Number of cycles IEW is squashing
system.switch_cpus1.iew.iewUnblockCycles     18496996                       # Number of cycles IEW is unblocking
system.switch_cpus1.iew.memOrderViolationEvents        23113                       # Number of memory order violations
system.switch_cpus1.iew.predictedNotTakenIncorrect      3269852                       # Number of branches that were predicted not taken incorrectly
system.switch_cpus1.iew.predictedTakenIncorrect      2706157                       # Number of branches that were predicted taken incorrectly
system.switch_cpus1.iew.wb_consumers        722119351                       # num instructions consuming a value
system.switch_cpus1.iew.wb_count            683489696                       # cumulative count of insts written-back
system.switch_cpus1.iew.wb_fanout            0.655390                       # average fanout of values written-back
system.switch_cpus1.iew.wb_producers        473269799                       # num instructions producing a value
system.switch_cpus1.iew.wb_rate              1.623686                       # insts written-back per cycle
system.switch_cpus1.iew.wb_sent             688160757                       # cumulative count of insts sent to commit
system.switch_cpus1.int_regfile_reads       990462535                       # number of integer regfile reads
system.switch_cpus1.int_regfile_writes      555744917                       # number of integer regfile writes
system.switch_cpus1.ipc                      0.593240                       # IPC: Instructions Per Cycle
system.switch_cpus1.ipc_total                0.593240                       # IPC: Total IPC of All Threads
system.switch_cpus1.iq.FU_type_0::No_OpClass       314158      0.04%      0.04% # Type of FU issued
system.switch_cpus1.iq.FU_type_0::IntAlu    527697984     74.35%     74.40% # Type of FU issued
system.switch_cpus1.iq.FU_type_0::IntMult       729446      0.10%     74.50% # Type of FU issued
system.switch_cpus1.iq.FU_type_0::IntDiv      1848763      0.26%     74.76% # Type of FU issued
system.switch_cpus1.iq.FU_type_0::FloatAdd            0      0.00%     74.76% # Type of FU issued
system.switch_cpus1.iq.FU_type_0::FloatCmp            0      0.00%     74.76% # Type of FU issued
system.switch_cpus1.iq.FU_type_0::FloatCvt            0      0.00%     74.76% # Type of FU issued
system.switch_cpus1.iq.FU_type_0::FloatMult            0      0.00%     74.76% # Type of FU issued
system.switch_cpus1.iq.FU_type_0::FloatMultAcc            0      0.00%     74.76% # Type of FU issued
system.switch_cpus1.iq.FU_type_0::FloatDiv            0      0.00%     74.76% # Type of FU issued
system.switch_cpus1.iq.FU_type_0::FloatMisc            0      0.00%     74.76% # Type of FU issued
system.switch_cpus1.iq.FU_type_0::FloatSqrt            0      0.00%     74.76% # Type of FU issued
system.switch_cpus1.iq.FU_type_0::SimdAdd            0      0.00%     74.76% # Type of FU issued
system.switch_cpus1.iq.FU_type_0::SimdAddAcc            0      0.00%     74.76% # Type of FU issued
system.switch_cpus1.iq.FU_type_0::SimdAlu            0      0.00%     74.76% # Type of FU issued
system.switch_cpus1.iq.FU_type_0::SimdCmp            0      0.00%     74.76% # Type of FU issued
system.switch_cpus1.iq.FU_type_0::SimdCvt            0      0.00%     74.76% # Type of FU issued
system.switch_cpus1.iq.FU_type_0::SimdMisc            0      0.00%     74.76% # Type of FU issued
system.switch_cpus1.iq.FU_type_0::SimdMult            0      0.00%     74.76% # Type of FU issued
system.switch_cpus1.iq.FU_type_0::SimdMultAcc            0      0.00%     74.76% # Type of FU issued
system.switch_cpus1.iq.FU_type_0::SimdShift            0      0.00%     74.76% # Type of FU issued
system.switch_cpus1.iq.FU_type_0::SimdShiftAcc            0      0.00%     74.76% # Type of FU issued
system.switch_cpus1.iq.FU_type_0::SimdDiv            0      0.00%     74.76% # Type of FU issued
system.switch_cpus1.iq.FU_type_0::SimdSqrt            0      0.00%     74.76% # Type of FU issued
system.switch_cpus1.iq.FU_type_0::SimdFloatAdd            0      0.00%     74.76% # Type of FU issued
system.switch_cpus1.iq.FU_type_0::SimdFloatAlu            0      0.00%     74.76% # Type of FU issued
system.switch_cpus1.iq.FU_type_0::SimdFloatCmp            0      0.00%     74.76% # Type of FU issued
system.switch_cpus1.iq.FU_type_0::SimdFloatCvt            0      0.00%     74.76% # Type of FU issued
system.switch_cpus1.iq.FU_type_0::SimdFloatDiv            0      0.00%     74.76% # Type of FU issued
system.switch_cpus1.iq.FU_type_0::SimdFloatMisc            0      0.00%     74.76% # Type of FU issued
system.switch_cpus1.iq.FU_type_0::SimdFloatMult            0      0.00%     74.76% # Type of FU issued
system.switch_cpus1.iq.FU_type_0::SimdFloatMultAcc            0      0.00%     74.76% # Type of FU issued
system.switch_cpus1.iq.FU_type_0::SimdFloatSqrt            0      0.00%     74.76% # Type of FU issued
system.switch_cpus1.iq.FU_type_0::SimdReduceAdd            0      0.00%     74.76% # Type of FU issued
system.switch_cpus1.iq.FU_type_0::SimdReduceAlu            0      0.00%     74.76% # Type of FU issued
system.switch_cpus1.iq.FU_type_0::SimdReduceCmp            0      0.00%     74.76% # Type of FU issued
system.switch_cpus1.iq.FU_type_0::SimdFloatReduceAdd            0      0.00%     74.76% # Type of FU issued
system.switch_cpus1.iq.FU_type_0::SimdFloatReduceCmp            0      0.00%     74.76% # Type of FU issued
system.switch_cpus1.iq.FU_type_0::SimdAes            0      0.00%     74.76% # Type of FU issued
system.switch_cpus1.iq.FU_type_0::SimdAesMix            0      0.00%     74.76% # Type of FU issued
system.switch_cpus1.iq.FU_type_0::SimdSha1Hash            0      0.00%     74.76% # Type of FU issued
system.switch_cpus1.iq.FU_type_0::SimdSha1Hash2            0      0.00%     74.76% # Type of FU issued
system.switch_cpus1.iq.FU_type_0::SimdSha256Hash            0      0.00%     74.76% # Type of FU issued
[...]
system.switch_cpus3.commit.numCommittedDist::mean     1.159061                       # Number of insts commited each cycle
system.switch_cpus3.commit.numCommittedDist::stdev     2.400530                       # Number of insts commited each cycle
system.switch_cpus3.commit.numCommittedDist::underflows            0      0.00%      0.00% # Number of insts commited each cycle
system.switch_cpus3.commit.numCommittedDist::0    266487431     72.02%     72.02% # Number of insts commited each cycle
system.switch_cpus3.commit.numCommittedDist::1     28991370      7.84%     79.86% # Number of insts commited each cycle
system.switch_cpus3.commit.numCommittedDist::2     12635641      3.41%     83.27% # Number of insts commited each cycle
system.switch_cpus3.commit.numCommittedDist::3     13381846      3.62%     86.89% # Number of insts commited each cycle
system.switch_cpus3.commit.numCommittedDist::4      8556600      2.31%     89.20% # Number of insts commited each cycle
system.switch_cpus3.commit.numCommittedDist::5      3782099      1.02%     90.22% # Number of insts commited each cycle
system.switch_cpus3.commit.numCommittedDist::6      2123304      0.57%     90.80% # Number of insts commited each cycle
system.switch_cpus3.commit.numCommittedDist::7      3891614      1.05%     91.85% # Number of insts commited each cycle
system.switch_cpus3.commit.numCommittedDist::8     30168446      8.15%    100.00% # Number of insts commited each cycle
system.switch_cpus3.commit.numCommittedDist::overflows            0      0.00%    100.00% # Number of insts commited each cycle
system.switch_cpus3.commit.numCommittedDist::min_value            0                       # Number of insts commited each cycle
system.switch_cpus3.commit.numCommittedDist::max_value            8                       # Number of insts commited each cycle
system.switch_cpus3.commit.numCommittedDist::total    370018351                       # Number of insts commited each cycle
system.switch_cpus3.commit.instsCommitted    248993357                       # Number of instructions committed
system.switch_cpus3.commit.opsCommitted     428873775                       # Number of ops (including micro ops) committed
system.switch_cpus3.commit.memRefs          108994121                       # Number of memory references committed
system.switch_cpus3.commit.loads             85107483                       # Number of loads committed
system.switch_cpus3.commit.amos                     0                       # Number of atomic instructions committed
system.switch_cpus3.commit.membars                  0                       # Number of memory barriers committed
system.switch_cpus3.commit.branches          64055419                       # Number of branches committed
system.switch_cpus3.commit.vector                   0                       # Number of committed Vector instructions.
system.switch_cpus3.commit.floating                 0                       # Number of committed floating point instructions.
system.switch_cpus3.commit.integer          428340144                       # Number of committed integer instructions.
system.switch_cpus3.commit.functionCalls      8235801                       # Number of function calls committed.
system.switch_cpus3.commit.committedInstType_0::No_OpClass       280367      0.07%      0.07% # Class of committed instruction
system.switch_cpus3.commit.committedInstType_0::IntAlu    317265283     73.98%     74.04% # Class of committed instruction
system.switch_cpus3.commit.committedInstType_0::IntMult       560911      0.13%     74.17% # Class of committed instruction
system.switch_cpus3.commit.committedInstType_0::IntDiv      1773093      0.41%     74.59% # Class of committed instruction
system.switch_cpus3.commit.committedInstType_0::FloatAdd            0      0.00%     74.59% # Class of committed instruction
system.switch_cpus3.commit.committedInstType_0::FloatCmp            0      0.00%     74.59% # Class of committed instruction
system.switch_cpus3.commit.committedInstType_0::FloatCvt            0      0.00%     74.59% # Class of committed instruction
system.switch_cpus3.commit.committedInstType_0::FloatMult            0      0.00%     74.59% # Class of committed instruction
system.switch_cpus3.commit.committedInstType_0::FloatMultAcc            0      0.00%     74.59% # Class of committed instruction
system.switch_cpus3.commit.committedInstType_0::FloatDiv            0      0.00%     74.59% # Class of committed instruction
system.switch_cpus3.commit.committedInstType_0::FloatMisc            0      0.00%     74.59% # Class of committed instruction
system.switch_cpus3.commit.committedInstType_0::FloatSqrt            0      0.00%     74.59% # Class of committed instruction
system.switch_cpus3.commit.committedInstType_0::SimdAdd            0      0.00%     74.59% # Class of committed instruction
system.switch_cpus3.commit.committedInstType_0::SimdAddAcc            0      0.00%     74.59% # Class of committed instruction
system.switch_cpus3.commit.committedInstType_0::SimdAlu            0      0.00%     74.59% # Class of committed instruction
system.switch_cpus3.commit.committedInstType_0::SimdCmp            0      0.00%     74.59% # Class of committed instruction
system.switch_cpus3.commit.committedInstType_0::SimdCvt            0      0.00%     74.59% # Class of committed instruction
system.switch_cpus3.commit.committedInstType_0::SimdMisc            0      0.00%     74.59% # Class of committed instruction
system.switch_cpus3.commit.committedInstType_0::SimdMult            0      0.00%     74.59% # Class of committed instruction
system.switch_cpus3.commit.committedInstType_0::SimdMultAcc            0      0.00%     74.59% # Class of committed instruction
system.switch_cpus3.commit.committedInstType_0::SimdShift            0      0.00%     74.59% # Class of committed instruction
system.switch_cpus3.commit.committedInstType_0::SimdShiftAcc            0      0.00%     74.59% # Class of committed instruction
system.switch_cpus3.commit.committedInstType_0::SimdDiv            0      0.00%     74.59% # Class of committed instruction
system.switch_cpus3.commit.committedInstType_0::SimdSqrt            0      0.00%     74.59% # Class of committed instruction
system.switch_cpus3.commit.committedInstType_0::SimdFloatAdd            0      0.00%     74.59% # Class of committed instruction
system.switch_cpus3.commit.committedInstType_0::SimdFloatAlu            0      0.00%     74.59% # Class of committed instruction
system.switch_cpus3.commit.committedInstType_0::SimdFloatCmp            0      0.00%     74.59% # Class of committed instruction
system.switch_cpus3.commit.committedInstType_0::SimdFloatCvt            0      0.00%     74.59% # Class of committed instruction
system.switch_cpus3.commit.committedInstType_0::SimdFloatDiv            0      0.00%     74.59% # Class of committed instruction
system.switch_cpus3.commit.committedInstType_0::SimdFloatMisc            0      0.00%     74.59% # Class of committed instruction
system.switch_cpus3.commit.committedInstType_0::SimdFloatMult            0      0.00%     74.59% # Class of committed instruction
system.switch_cpus3.commit.committedInstType_0::SimdFloatMultAcc            0      0.00%     74.59% # Class of committed instruction
system.switch_cpus3.commit.committedInstType_0::SimdFloatSqrt            0      0.00%     74.59% # Class of committed instruction
system.switch_cpus3.commit.committedInstType_0::SimdReduceAdd            0      0.00%     74.59% # Class of committed instruction
system.switch_cpus3.commit.committedInstType_0::SimdReduceAlu            0      0.00%     74.59% # Class of committed instruction
system.switch_cpus3.commit.committedInstType_0::SimdReduceCmp            0      0.00%     74.59% # Class of committed instruction
system.switch_cpus3.commit.committedInstType_0::SimdFloatReduceAdd            0      0.00%     74.59% # Class of committed instruction
system.switch_cpus3.commit.committedInstType_0::SimdFloatReduceCmp            0      0.00%     74.59% # Class of committed instruction
system.switch_cpus3.commit.committedInstType_0::SimdAes            0      0.00%     74.59% # Class of committed instruction
system.switch_cpus3.commit.committedInstType_0::SimdAesMix            0      0.00%     74.59% # Class of committed instruction
system.switch_cpus3.commit.committedInstType_0::SimdSha1Hash            0      0.00%     74.59% # Class of committed instruction
system.switch_cpus3.commit.committedInstType_0::SimdSha1Hash2            0      0.00%     74.59% # Class of committed instruction
system.switch_cpus3.commit.committedInstType_0::SimdSha256Hash            0      0.00%     74.59% # Class of committed instruction
system.switch_cpus3.commit.committedInstType_0::SimdSha256Hash2            0      0.00%     74.59% # Class of committed instruction
system.switch_cpus3.commit.committedInstType_0::SimdShaSigma2            0      0.00%     74.59% # Class of committed instruction
system.switch_cpus3.commit.committedInstType_0::SimdShaSigma3            0      0.00%     74.59% # Class of committed instruction
system.switch_cpus3.commit.committedInstType_0::SimdPredAlu            0      0.00%     74.59% # Class of committed instruction
system.switch_cpus3.commit.committedInstType_0::MemRead     85107483     19.84%     94.43% # Class of committed instruction
system.switch_cpus3.commit.committedInstType_0::MemWrite     23886638      5.57%    100.00% # Class of committed instruction
system.switch_cpus3.commit.committedInstType_0::FloatMemRead            0      0.00%    100.00% # Class of committed instruction
system.switch_cpus3.commit.committedInstType_0::FloatMemWrite            0      0.00%    100.00% # Class of committed instruction
system.switch_cpus3.commit.committedInstType_0::IprAccess            0      0.00%    100.00% # Class of committed instruction
system.switch_cpus3.commit.committedInstType_0::InstPrefetch            0      0.00%    100.00% # Class of committed instruction
system.switch_cpus3.commit.committedInstType_0::total    428873775                       # Class of committed instruction
system.switch_cpus3.commit.commitEligibleSamples     30168446                       # number cycles where commit BW limit reached
system.switch_cpus3.decode.idleCycles        18114267                       # Number of cycles decode is idle
system.switch_cpus3.decode.blockedCycles    264718107                       # Number of cycles decode is blocked
system.switch_cpus3.decode.runCycles        116062630                       # Number of cycles decode is running
system.switch_cpus3.decode.unblockCycles     16281027                       # Number of cycles decode is unblocking
system.switch_cpus3.decode.squashCycles       5764948                       # Number of cycles decode is squashing
system.switch_cpus3.decode.branchResolved     46749098                       # Number of times decode resolved a  branch
system.switch_cpus3.decode.branchMispred           93                       # Number of times decode detected a branch misprediction
system.switch_cpus3.decode.decodedInsts     873583851                       # Number of instructions handled by decode
system.switch_cpus3.decode.squashedInsts          620                       # Number of squashed instructions handled by decode
system.switch_cpus3.dtb.rdAccesses          135462734                       # TLB accesses on read requests
system.switch_cpus3.dtb.wrAccesses           35715597                       # TLB accesses on write requests
system.switch_cpus3.dtb.rdMisses              1555642                       # TLB misses on read requests
system.switch_cpus3.dtb.wrMisses               282613                       # TLB misses on write requests
system.switch_cpus3.dtb.walker.power_state.pwrStateResidencyTicks::UNDEFINED 16955327092275                       # Cumulative time (in ticks) in various power states
system.switch_cpus3.fetch.icacheStallCycles      4758564                       # Number of cycles fetch is stalled on an Icache miss
system.switch_cpus3.fetch.insts             545152231                       # Number of instructions fetch has processed
system.switch_cpus3.fetch.branches          144259710                       # Number of branches that fetch encountered
system.switch_cpus3.fetch.predictedBranches     88885353                       # Number of branches that fetch has predicted taken
system.switch_cpus3.fetch.cycles            410417386                       # Number of cycles fetch has run and was not squashing or blocked
system.switch_cpus3.fetch.squashCycles       11530078                       # Number of cycles fetch has spent squashing
system.switch_cpus3.fetch.cacheLines        107832120                       # Number of cache lines fetched
system.switch_cpus3.fetch.icacheSquashes          129                       # Number of outstanding Icache misses that were squashed
system.switch_cpus3.fetch.nisnDist::samples    420940989                       # Number of instructions fetched each cycle (Total)
system.switch_cpus3.fetch.nisnDist::mean     2.241891                       # Number of instructions fetched each cycle (Total)
system.switch_cpus3.fetch.nisnDist::stdev     3.096187                       # Number of instructions fetched each cycle (Total)
system.switch_cpus3.fetch.nisnDist::underflows            0      0.00%      0.00% # Number of instructions fetched each cycle (Total)
system.switch_cpus3.fetch.nisnDist::0       246702712     58.61%     58.61% # Number of instructions fetched each cycle (Total)
system.switch_cpus3.fetch.nisnDist::1        14003810      3.33%     61.93% # Number of instructions fetched each cycle (Total)
system.switch_cpus3.fetch.nisnDist::2        12237922      2.91%     64.84% # Number of instructions fetched each cycle (Total)
system.switch_cpus3.fetch.nisnDist::3        22012613      5.23%     70.07% # Number of instructions fetched each cycle (Total)
system.switch_cpus3.fetch.nisnDist::4        21668527      5.15%     75.22% # Number of instructions fetched each cycle (Total)
system.switch_cpus3.fetch.nisnDist::5        12284527      2.92%     78.14% # Number of instructions fetched each cycle (Total)
system.switch_cpus3.fetch.nisnDist::6        11744135      2.79%     80.93% # Number of instructions fetched each cycle (Total)
system.switch_cpus3.fetch.nisnDist::7        21669332      5.15%     86.07% # Number of instructions fetched each cycle (Total)
system.switch_cpus3.fetch.nisnDist::8        58617411     13.93%    100.00% # Number of instructions fetched each cycle (Total)
system.switch_cpus3.fetch.nisnDist::overflows            0      0.00%    100.00% # Number of instructions fetched each cycle (Total)
system.switch_cpus3.fetch.nisnDist::min_value            0                       # Number of instructions fetched each cycle (Total)
system.switch_cpus3.fetch.nisnDist::max_value            8                       # Number of instructions fetched each cycle (Total)
system.switch_cpus3.fetch.nisnDist::total    420940989                       # Number of instructions fetched each cycle (Total)
system.switch_cpus3.fetch.branchRate         0.342701                       # Number of branch fetches per cycle
system.switch_cpus3.fetch.rate               1.295054                       # Number of inst fetches per cycle
system.switch_cpus3.itb.rdAccesses                  0                       # TLB accesses on read requests
system.switch_cpus3.itb.wrAccesses          107832120                       # TLB accesses on write requests
system.switch_cpus3.itb.rdMisses                    0                       # TLB misses on read requests
system.switch_cpus3.itb.wrMisses                    5                       # TLB misses on write requests
system.switch_cpus3.itb.walker.power_state.pwrStateResidencyTicks::UNDEFINED 16955327092275                       # Cumulative time (in ticks) in various power states
system.switch_cpus3.lsq0.forwLoads           22623698                       # Number of loads that had data forwarded from stores
system.switch_cpus3.lsq0.squashedLoads       70857874                       # Number of loads squashed
system.switch_cpus3.lsq0.ignoredResponses       400557                       # Number of memory responses ignored because the instruction is squashed
system.switch_cpus3.lsq0.memOrderViolation        22959                       # Number of memory ordering violations
system.switch_cpus3.lsq0.squashedStores      16674037                       # Number of stores squashed
system.switch_cpus3.lsq0.rescheduledLoads         2346                       # Number of loads that were rescheduled
system.switch_cpus3.lsq0.blockedByCache           102                       # Number of times an access to memory failed due to the cache being blocked
system.switch_cpus3.power_state.pwrStateResidencyTicks::OFF 140176186497                       # Cumulative time (in ticks) in various power states
system.switch_cpus3.rename.squashCycles       5764948                       # Number of cycles rename is squashing
system.switch_cpus3.rename.idleCycles        25423385                       # Number of cycles rename is idle
system.switch_cpus3.rename.blockCycles      221502400                       # Number of cycles rename is blocking
system.switch_cpus3.rename.serializeStallCycles            0                       # count of cycles rename stalledfor serializing inst
system.switch_cpus3.rename.runCycles        123106958                       # Number of cycles rename is running
system.switch_cpus3.rename.unblockCycles     45143288                       # Number of cycles rename is unblocking
system.switch_cpus3.rename.renamedInsts     842962109                       # Number of instructions processed by rename
system.switch_cpus3.rename.ROBFullEvents      3958869                       # Number of times rename has blocked due to ROB full
system.switch_cpus3.rename.IQFullEvents      19599278                       # Number of times rename has blocked due to IQ full
system.switch_cpus3.rename.LQFullEvents      30768144                       # Number of times rename has blocked due to LQ full
system.switch_cpus3.rename.SQFullEvents        468208                       # Number of times rename has blocked due to SQ full
system.switch_cpus3.rename.renamedOperands    880734850                       # Number of destination operands rename has renamed
system.switch_cpus3.rename.lookups         2252821178                       # Number of register rename lookups that rename has made
system.switch_cpus3.rename.intLookups      1259063891                       # Number of integer rename lookups
system.switch_cpus3.rename.committedMaps    452419628                       # Number of HB maps that are committed
system.switch_cpus3.rename.undoneMaps       428315139                       # Number of HB maps that are undone due to squashing
system.switch_cpus3.rename.serializing              0                       # count of serializing insts renamed
system.switch_cpus3.rename.tempSerializing            0                       # count of temporary serializing insts renamed
system.switch_cpus3.rename.skidInsts         47495024                       # count of insts added to the skid buffer
system.switch_cpus3.rob.reads              1127983433                       # The number of ROB reads
system.switch_cpus3.rob.writes             1627476645                       # The number of ROB writes
system.switch_cpus3.thread0.numInsts        248993357                       # Number of Instructions committed
system.switch_cpus3.thread0.numOps          428873775                       # Number of Ops committed
system.switch_cpus3.thread0.numMemRefs              0                       # Number of Memory References
system.voltage_domain.voltage                       1                       # Voltage in Volts

---------- End Simulation Statistics   ----------
