Command line:
./runscript_pride.sh bwaves RFM5.BR1.4C 4 2017 --rh_defense --rh_mitigation=RFM --rh_rfm_per_trefi=5 --rh_rfm_blast_radius=1 --rh_rfm_maxacts_per_trefi=79
Global frequency set at 1000000000000 ticks per second
RFM details - rfm_act_threshold: 15, blast_radius: 1, delay_per_rfm: 175000 ps. sample_rate: 0.062500
RH Defense config: RFM, Bus Delay: 0, rfms_per_trefi: 5, rfm_act_threshold: 15, blast_radius: 1,rfm_delay_per_act: 45000 ps.
DRAM config: RowsPerBank: 65536, BanksPerRank: 32, RanksPerChannel: 1
warn: Sockets disabled, not accepting gdb connections
warn: CoherentXBar system.cpu0.mmucache.mmubus has no snooping ports attached!
warn: CoherentXBar system.cpu1.mmucache.mmubus has no snooping ports attached!
warn: CoherentXBar system.cpu2.mmucache.mmubus has no snooping ports attached!
warn: CoherentXBar system.cpu3.mmucache.mmubus has no snooping ports attached!
warn: Checkpoints for file descriptors currently do not work.
warn: Checkpoints for file descriptors currently do not work.
warn: Checkpoints for file descriptors currently do not work.
warn: Checkpoints for file descriptors currently do not work.
gem5 Simulator System.  http://gem5.org
gem5 is copyrighted software; use the --copyright option for details.

gem5 version 20.1.0.5
gem5 compiled Jul 12 2024 12:42:38
gem5 started Jul 31 2024 17:43:01
gem5 executing on a07dda8b130c, pid 241557
command line: /home/user/PrIDE/performance/gem5/build/X86/gem5.opt --outdir=/home/user/PrIDE/performance/gem5/stats/pride_multiprogram_16GBmem_250Mn.SPEC2017.C4/RFM5.BR1.4C/bwaves /home/user/PrIDE/performance/gem5/configs/example/se_rq_spec_config_multicore.py --redirects /lib64=/home/utils/gcc-6.2.0/lib64 --benchmark=bwaves --benchmark_stdout=/home/user/PrIDE/performance/gem5/stats/pride_multiprogram_16GBmem_250Mn.SPEC2017.C4/RFM5.BR1.4C/bwaves/bwaves.out --benchmark_stderr=/home/user/PrIDE/performance/gem5/stats/pride_multiprogram_16GBmem_250Mn.SPEC2017.C4/RFM5.BR1.4C/bwaves/bwaves.err --spec-version=2017 --rh_defense --rh_mitigation=RFM --rh_rfm_per_trefi=5 --rh_rfm_blast_radius=1 --rh_rfm_maxacts_per_trefi=79 --num-cpus=4 --mem-size=16GB --mem-type=DDR5_2400_32x4 --mem-ranks=1 --mem-channels=1 --checkpoint-dir=/home/user/PrIDE/performance/gem5/cpts-DDR5/multiprogram_16GBmem_25Bn.SPEC2017.C4/bwaves-1-ref-x86 --checkpoint-restore=25000000000 --at-instruction --cpu-type DerivO3CPU --caches --l2cache --l1d_size=32kB --l1i_size=32kB --l2_size=256kB --l3_size=4MB --l1d_assoc=8 --l1i_assoc=8 --l2_assoc=16 --l3_assoc=16 --cpu-clock=3GHz --sys-clock=3GHz --maxinsts=250000000 --prog-interval=300Hz

info: Standard input is not a terminal, disabling listeners.
Benchmark- 0   bwaves
Selected benchmark
--> bwaves
CMD: ['/opt/spec2017/benchspec/CPU/503.bwaves_r/run/run_base_refrate_gem5_se-m64.0000/bwaves_r_base.gem5_se-m64', '/opt/spec2017/benchspec/CPU/503.bwaves_r/run/run_base_refrate_gem5_se-m64.0000/bwaves_1']
CWD: /opt/spec2017/benchspec/CPU/503.bwaves_r/run/run_base_refrate_gem5_se-m64.0000/
Process stdout file: /home/user/PrIDE/performance/gem5/stats/pride_multiprogram_16GBmem_250Mn.SPEC2017.C4/RFM5.BR1.4C/bwaves/bwaves.out_0
Process stderr file: /home/user/PrIDE/performance/gem5/stats/pride_multiprogram_16GBmem_250Mn.SPEC2017.C4/RFM5.BR1.4C/bwaves/bwaves.err_0
Benchmark- 1   bwaves
Selected benchmark
--> bwaves
CMD: ['/opt/spec2017/benchspec/CPU/503.bwaves_r/run/run_base_refrate_gem5_se-m64.0000/bwaves_r_base.gem5_se-m64', '/opt/spec2017/benchspec/CPU/503.bwaves_r/run/run_base_refrate_gem5_se-m64.0000/bwaves_1']
CWD: /opt/spec2017/benchspec/CPU/503.bwaves_r/run/run_base_refrate_gem5_se-m64.0000/
Process stdout file: /home/user/PrIDE/performance/gem5/stats/pride_multiprogram_16GBmem_250Mn.SPEC2017.C4/RFM5.BR1.4C/bwaves/bwaves.out_1
Process stderr file: /home/user/PrIDE/performance/gem5/stats/pride_multiprogram_16GBmem_250Mn.SPEC2017.C4/RFM5.BR1.4C/bwaves/bwaves.err_1
Benchmark- 2   bwaves
Selected benchmark
--> bwaves
CMD: ['/opt/spec2017/benchspec/CPU/503.bwaves_r/run/run_base_refrate_gem5_se-m64.0000/bwaves_r_base.gem5_se-m64', '/opt/spec2017/benchspec/CPU/503.bwaves_r/run/run_base_refrate_gem5_se-m64.0000/bwaves_1']
CWD: /opt/spec2017/benchspec/CPU/503.bwaves_r/run/run_base_refrate_gem5_se-m64.0000/
Process stdout file: /home/user/PrIDE/performance/gem5/stats/pride_multiprogram_16GBmem_250Mn.SPEC2017.C4/RFM5.BR1.4C/bwaves/bwaves.out_2
Process stderr file: /home/user/PrIDE/performance/gem5/stats/pride_multiprogram_16GBmem_250Mn.SPEC2017.C4/RFM5.BR1.4C/bwaves/bwaves.err_2
Benchmark- 3   bwaves
Selected benchmark
--> bwaves
CMD: ['/opt/spec2017/benchspec/CPU/503.bwaves_r/run/run_base_refrate_gem5_se-m64.0000/bwaves_r_base.gem5_se-m64', '/opt/spec2017/benchspec/CPU/503.bwaves_r/run/run_base_refrate_gem5_se-m64.0000/bwaves_1']
CWD: /opt/spec2017/benchspec/CPU/503.bwaves_r/run/run_base_refrate_gem5_se-m64.0000/
Process stdout file: /home/user/PrIDE/performance/gem5/stats/pride_multiprogram_16GBmem_250Mn.SPEC2017.C4/RFM5.BR1.4C/bwaves/bwaves.out_3
Process stderr file: /home/user/PrIDE/performance/gem5/stats/pride_multiprogram_16GBmem_250Mn.SPEC2017.C4/RFM5.BR1.4C/bwaves/bwaves.err_3
Workload-0: 
['/opt/spec2017/benchspec/CPU/503.bwaves_r/run/run_base_refrate_gem5_se-m64.0000/bwaves_r_base.gem5_se-m64', '/opt/spec2017/benchspec/CPU/503.bwaves_r/run/run_base_refrate_gem5_se-m64.0000/bwaves_1']
Workload-1: 
['/opt/spec2017/benchspec/CPU/503.bwaves_r/run/run_base_refrate_gem5_se-m64.0000/bwaves_r_base.gem5_se-m64', '/opt/spec2017/benchspec/CPU/503.bwaves_r/run/run_base_refrate_gem5_se-m64.0000/bwaves_1']
Workload-2: 
['/opt/spec2017/benchspec/CPU/503.bwaves_r/run/run_base_refrate_gem5_se-m64.0000/bwaves_r_base.gem5_se-m64', '/opt/spec2017/benchspec/CPU/503.bwaves_r/run/run_base_refrate_gem5_se-m64.0000/bwaves_1']
Workload-3: 
['/opt/spec2017/benchspec/CPU/503.bwaves_r/run/run_base_refrate_gem5_se-m64.0000/bwaves_r_base.gem5_se-m64', '/opt/spec2017/benchspec/CPU/503.bwaves_r/run/run_base_refrate_gem5_se-m64.0000/bwaves_1']
defense_enable:  True  detector:  MG  mitigation:  RFM  threshold:  800
mg_entries:  1700
rfm_maxacts_per_trefi:  79 rfm_per_trefi:  5 rfm_blast_radius:  1
Switch at curTick count:10000
warn: membus.master is deprecated. `master` is now called `mem_side_ports`
warn: No dot file generated. Please install pydot to generate the dot file and pdf.
info: Entering event queue @ 17475504706962.  Starting simulation...
warn: PowerState: Already in the requested power state, request ignored
Switched CPUS @ tick 17475504716962
switching cpus
**** REAL SIMULATION ****
info: Entering event queue @ 17475504716962.  Starting simulation...
17478838040295: Event_285: system.switch_cpus3 progress event, total committed:5401282, progress insts committed: 5401282, IPC: 0.539588
17478838040295: Event_284: system.switch_cpus2 progress event, total committed:5404463, progress insts committed: 5404463, IPC: 0.539906
17478838040295: Event_283: system.switch_cpus1 progress event, total committed:5400649, progress insts committed: 5400649, IPC: 0.539525
17478838040295: Event_282: system.switch_cpus0 progress event, total committed:5390991, progress insts committed: 5390991, IPC: 00.53856
17482171373628: Event_282: system.switch_cpus0 progress event, total committed:10626492, progress insts committed: 5235501, IPC: 0.523027
17482171373628: Event_283: system.switch_cpus1 progress event, total committed:10638516, progress insts committed: 5237867, IPC: 0.523263
17482171373628: Event_284: system.switch_cpus2 progress event, total committed:10642411, progress insts committed: 5237948, IPC: 0.523271
17482171373628: Event_285: system.switch_cpus3 progress event, total committed:10641412, progress insts committed: 5240130, IPC: 0.523489
17485504706961: Event_285: system.switch_cpus3 progress event, total committed:15925420, progress insts committed: 5284008, IPC: 0.527872
17485504706961: Event_284: system.switch_cpus2 progress event, total committed:15927068, progress insts committed: 5284657, IPC: 0.527937
17485504706961: Event_283: system.switch_cpus1 progress event, total committed:15925325, progress insts committed: 5286809, IPC: 0.528152
17485504706961: Event_282: system.switch_cpus0 progress event, total committed:15906565, progress insts committed: 5280073, IPC: 0.527479
17488838040294: Event_282: system.switch_cpus0 progress event, total committed:21224843, progress insts committed: 5318278, IPC: 0.531296
17488838040294: Event_283: system.switch_cpus1 progress event, total committed:21246247, progress insts committed: 5320922, IPC: 00.53156
17488838040294: Event_284: system.switch_cpus2 progress event, total committed:21255627, progress insts committed: 5328559, IPC: 0.532323
17488838040294: Event_285: system.switch_cpus3 progress event, total committed:21253645, progress insts committed: 5328225, IPC: 00.53229
17492171373627: Event_285: system.switch_cpus3 progress event, total committed:26455581, progress insts committed: 5201936, IPC: 0.519673
17492171373627: Event_284: system.switch_cpus2 progress event, total committed:26456113, progress insts committed: 5200486, IPC: 0.519529
17492171373627: Event_283: system.switch_cpus1 progress event, total committed:26433384, progress insts committed: 5187137, IPC: 0.518195
17492171373627: Event_282: system.switch_cpus0 progress event, total committed:26413176, progress insts committed: 5188333, IPC: 0.518314
17495504706960: Event_282: system.switch_cpus0 progress event, total committed:31571662, progress insts committed: 5158486, IPC: 0.515333
17495504706960: Event_283: system.switch_cpus1 progress event, total committed:31586523, progress insts committed: 5153139, IPC: 0.514799
17495504706960: Event_284: system.switch_cpus2 progress event, total committed:31617106, progress insts committed: 5160993, IPC: 0.515583
17495504706960: Event_285: system.switch_cpus3 progress event, total committed:31611566, progress insts committed: 5155985, IPC: 0.515083
fatal: Unable to find destination for [0x8000000000000082:0x8000000000000086] on system.membus
Memory Usage: 17655672 KBytes
