
---------- Begin Simulation Statistics ----------
final_tick                               15023770806717                       # Number of ticks from beginning of simulation (restored from checkpoints and never reset)
host_inst_rate                                  93395                       # Simulator instruction rate (inst/s)
host_mem_usage                               17423532                       # Number of bytes of host memory used
host_op_rate                                   135514                       # Simulator op (including micro ops) rate (op/s)
host_seconds                                 10703.66                       # Real time elapsed on the host
host_tick_rate                                6850430                       # Simulator tick rate (ticks/s)
sim_freq                                 1000000000000                       # Frequency of simulated ticks
sim_insts                                   999663290                       # Number of instructions simulated
sim_ops                                    1450492214                       # Number of ops (including micro ops) simulated
sim_seconds                                  0.073325                       # Number of seconds simulated
sim_ticks                                 73324687914                       # Number of ticks simulated
system.cpu0.Branches                                1                       # Number of branches fetched
system.cpu0.committedInsts                         11                       # Number of instructions committed
system.cpu0.committedOps                           23                       # Number of ops (including micro ops) committed
system.cpu0.idle_fraction                           0                       # Percentage of idle cycles
system.cpu0.l2bus.snoop_filter.hit_multi_requests          112                       # Number of requests hitting in the snoop filter with multiple (>1) holders of the requested data.
system.cpu0.l2bus.snoop_filter.hit_multi_snoops            0                       # Number of snoops hitting in the snoop filter with multiple (>1) holders of the requested data.
system.cpu0.l2bus.snoop_filter.hit_single_requests       226976                       # Number of requests hitting in the snoop filter with a single holder of the requested data.
system.cpu0.l2bus.snoop_filter.hit_single_snoops          327                       # Number of snoops hitting in the snoop filter with a single holder of the requested data.
system.cpu0.l2bus.snoop_filter.tot_requests       454308                       # Total number of requests made to the snoop filter.
system.cpu0.l2bus.snoop_filter.tot_snoops          327                       # Total number of snoops made to the snoop filter.
system.cpu0.mmucache.mmubus.snoop_filter.hit_multi_requests            0                       # Number of requests hitting in the snoop filter with multiple (>1) holders of the requested data.
system.cpu0.mmucache.mmubus.snoop_filter.hit_multi_snoops            0                       # Number of snoops hitting in the snoop filter with multiple (>1) holders of the requested data.
system.cpu0.mmucache.mmubus.snoop_filter.hit_single_requests            0                       # Number of requests hitting in the snoop filter with a single holder of the requested data.
system.cpu0.mmucache.mmubus.snoop_filter.hit_single_snoops            0                       # Number of snoops hitting in the snoop filter with a single holder of the requested data.
system.cpu0.mmucache.mmubus.snoop_filter.tot_requests            0                       # Total number of requests made to the snoop filter.
system.cpu0.mmucache.mmubus.snoop_filter.tot_snoops            0                       # Total number of snoops made to the snoop filter.
system.cpu0.not_idle_fraction                       1                       # Percentage of non-idle cycles
system.cpu0.numCycles                              30                       # number of cpu cycles simulated
system.cpu0.numWorkItemsCompleted                   0                       # number of work items this cpu completed
system.cpu0.numWorkItemsStarted                     0                       # number of work items this cpu started
system.cpu0.num_busy_cycles                        30                       # Number of busy cycles
system.cpu0.num_cc_register_reads                   5                       # number of times the CC registers were read
system.cpu0.num_cc_register_writes                  4                       # number of times the CC registers were written
system.cpu0.num_conditional_control_insts            1                       # number of instructions that are conditional controls
system.cpu0.num_fp_alu_accesses                    12                       # Number of float alu accesses
system.cpu0.num_fp_insts                           12                       # number of float instructions
system.cpu0.num_fp_register_reads                   4                       # number of times the floating registers were read
system.cpu0.num_fp_register_writes                  8                       # number of times the floating registers were written
system.cpu0.num_func_calls                          0                       # number of times a function call or return occured
system.cpu0.num_idle_cycles                         0                       # Number of idle cycles
system.cpu0.num_int_alu_accesses                   23                       # Number of integer alu accesses
system.cpu0.num_int_insts                          23                       # number of integer instructions
system.cpu0.num_int_register_reads                 58                       # number of times the integer registers were read
system.cpu0.num_int_register_writes                 8                       # number of times the integer registers were written
system.cpu0.num_load_insts                         10                       # Number of load instructions
system.cpu0.num_mem_refs                           16                       # number of memory refs
system.cpu0.num_store_insts                         6                       # Number of store instructions
system.cpu0.num_vec_alu_accesses                    0                       # Number of vector alu accesses
system.cpu0.num_vec_insts                           0                       # number of vector instructions
system.cpu0.num_vec_register_reads                  0                       # number of times the vector registers were read
system.cpu0.num_vec_register_writes                 0                       # number of times the vector registers were written
system.cpu0.op_class::No_OpClass                    2      8.00%      8.00% # Class of executed instruction
system.cpu0.op_class::IntAlu                        7     28.00%     36.00% # Class of executed instruction
system.cpu0.op_class::IntMult                       0      0.00%     36.00% # Class of executed instruction
system.cpu0.op_class::IntDiv                        0      0.00%     36.00% # Class of executed instruction
system.cpu0.op_class::FloatAdd                      0      0.00%     36.00% # Class of executed instruction
system.cpu0.op_class::FloatCmp                      0      0.00%     36.00% # Class of executed instruction
system.cpu0.op_class::FloatCvt                      0      0.00%     36.00% # Class of executed instruction
system.cpu0.op_class::FloatMult                     0      0.00%     36.00% # Class of executed instruction
system.cpu0.op_class::FloatMultAcc                  0      0.00%     36.00% # Class of executed instruction
system.cpu0.op_class::FloatDiv                      0      0.00%     36.00% # Class of executed instruction
system.cpu0.op_class::FloatMisc                     0      0.00%     36.00% # Class of executed instruction
system.cpu0.op_class::FloatSqrt                     0      0.00%     36.00% # Class of executed instruction
system.cpu0.op_class::SimdAdd                       0      0.00%     36.00% # Class of executed instruction
system.cpu0.op_class::SimdAddAcc                    0      0.00%     36.00% # Class of executed instruction
system.cpu0.op_class::SimdAlu                       0      0.00%     36.00% # Class of executed instruction
system.cpu0.op_class::SimdCmp                       0      0.00%     36.00% # Class of executed instruction
system.cpu0.op_class::SimdCvt                       0      0.00%     36.00% # Class of executed instruction
system.cpu0.op_class::SimdMisc                      0      0.00%     36.00% # Class of executed instruction
system.cpu0.op_class::SimdMult                      0      0.00%     36.00% # Class of executed instruction
system.cpu0.op_class::SimdMultAcc                   0      0.00%     36.00% # Class of executed instruction
system.cpu0.op_class::SimdShift                     0      0.00%     36.00% # Class of executed instruction
system.cpu0.op_class::SimdShiftAcc                  0      0.00%     36.00% # Class of executed instruction
system.cpu0.op_class::SimdDiv                       0      0.00%     36.00% # Class of executed instruction
system.cpu0.op_class::SimdSqrt                      0      0.00%     36.00% # Class of executed instruction
system.cpu0.op_class::SimdFloatAdd                  0      0.00%     36.00% # Class of executed instruction
system.cpu0.op_class::SimdFloatAlu                  0      0.00%     36.00% # Class of executed instruction
system.cpu0.op_class::SimdFloatCmp                  0      0.00%     36.00% # Class of executed instruction
system.cpu0.op_class::SimdFloatCvt                  0      0.00%     36.00% # Class of executed instruction
system.cpu0.op_class::SimdFloatDiv                  0      0.00%     36.00% # Class of executed instruction
system.cpu0.op_class::SimdFloatMisc                 0      0.00%     36.00% # Class of executed instruction
system.cpu0.op_class::SimdFloatMult                 0      0.00%     36.00% # Class of executed instruction
system.cpu0.op_class::SimdFloatMultAcc              0      0.00%     36.00% # Class of executed instruction
system.cpu0.op_class::SimdFloatSqrt                 0      0.00%     36.00% # Class of executed instruction
system.cpu0.op_class::SimdReduceAdd                 0      0.00%     36.00% # Class of executed instruction
system.cpu0.op_class::SimdReduceAlu                 0      0.00%     36.00% # Class of executed instruction
system.cpu0.op_class::SimdReduceCmp                 0      0.00%     36.00% # Class of executed instruction
system.cpu0.op_class::SimdFloatReduceAdd            0      0.00%     36.00% # Class of executed instruction
system.cpu0.op_class::SimdFloatReduceCmp            0      0.00%     36.00% # Class of executed instruction
system.cpu0.op_class::SimdAes                       0      0.00%     36.00% # Class of executed instruction
system.cpu0.op_class::SimdAesMix                    0      0.00%     36.00% # Class of executed instruction
system.cpu0.op_class::SimdSha1Hash                  0      0.00%     36.00% # Class of executed instruction
system.cpu0.op_class::SimdSha1Hash2                 0      0.00%     36.00% # Class of executed instruction
system.cpu0.op_class::SimdSha256Hash                0      0.00%     36.00% # Class of executed instruction
system.cpu0.op_class::SimdSha256Hash2               0      0.00%     36.00% # Class of executed instruction
system.cpu0.op_class::SimdShaSigma2                 0      0.00%     36.00% # Class of executed instruction
system.cpu0.op_class::SimdShaSigma3                 0      0.00%     36.00% # Class of executed instruction
system.cpu0.op_class::SimdPredAlu                   0      0.00%     36.00% # Class of executed instruction
system.cpu0.op_class::MemRead                       2      8.00%     44.00% # Class of executed instruction
system.cpu0.op_class::MemWrite                      2      8.00%     52.00% # Class of executed instruction
system.cpu0.op_class::FloatMemRead                  8     32.00%     84.00% # Class of executed instruction
system.cpu0.op_class::FloatMemWrite                 4     16.00%    100.00% # Class of executed instruction
system.cpu0.op_class::IprAccess                     0      0.00%    100.00% # Class of executed instruction
system.cpu0.op_class::InstPrefetch                  0      0.00%    100.00% # Class of executed instruction
system.cpu0.op_class::total                        25                       # Class of executed instruction
system.cpu0.workload.numSyscalls                    0                       # Number of system calls
system.cpu1.Branches                                1                       # Number of branches fetched
system.cpu1.committedInsts                         11                       # Number of instructions committed
system.cpu1.committedOps                           23                       # Number of ops (including micro ops) committed
system.cpu1.idle_fraction                           0                       # Percentage of idle cycles
system.cpu1.l2bus.snoop_filter.hit_multi_requests          284                       # Number of requests hitting in the snoop filter with multiple (>1) holders of the requested data.
system.cpu1.l2bus.snoop_filter.hit_multi_snoops            0                       # Number of snoops hitting in the snoop filter with multiple (>1) holders of the requested data.
system.cpu1.l2bus.snoop_filter.hit_single_requests       227022                       # Number of requests hitting in the snoop filter with a single holder of the requested data.
system.cpu1.l2bus.snoop_filter.hit_single_snoops          331                       # Number of snoops hitting in the snoop filter with a single holder of the requested data.
system.cpu1.l2bus.snoop_filter.tot_requests       454298                       # Total number of requests made to the snoop filter.
system.cpu1.l2bus.snoop_filter.tot_snoops          331                       # Total number of snoops made to the snoop filter.
system.cpu1.mmucache.mmubus.snoop_filter.hit_multi_requests            0                       # Number of requests hitting in the snoop filter with multiple (>1) holders of the requested data.
system.cpu1.mmucache.mmubus.snoop_filter.hit_multi_snoops            0                       # Number of snoops hitting in the snoop filter with multiple (>1) holders of the requested data.
system.cpu1.mmucache.mmubus.snoop_filter.hit_single_requests            0                       # Number of requests hitting in the snoop filter with a single holder of the requested data.
system.cpu1.mmucache.mmubus.snoop_filter.hit_single_snoops            0                       # Number of snoops hitting in the snoop filter with a single holder of the requested data.
system.cpu1.mmucache.mmubus.snoop_filter.tot_requests            0                       # Total number of requests made to the snoop filter.
system.cpu1.mmucache.mmubus.snoop_filter.tot_snoops            0                       # Total number of snoops made to the snoop filter.
system.cpu1.not_idle_fraction                       1                       # Percentage of non-idle cycles
system.cpu1.numCycles                              30                       # number of cpu cycles simulated
system.cpu1.numWorkItemsCompleted                   0                       # number of work items this cpu completed
system.cpu1.numWorkItemsStarted                     0                       # number of work items this cpu started
system.cpu1.num_busy_cycles                        30                       # Number of busy cycles
system.cpu1.num_cc_register_reads                   5                       # number of times the CC registers were read
system.cpu1.num_cc_register_writes                  4                       # number of times the CC registers were written
system.cpu1.num_conditional_control_insts            1                       # number of instructions that are conditional controls
system.cpu1.num_fp_alu_accesses                    12                       # Number of float alu accesses
system.cpu1.num_fp_insts                           12                       # number of float instructions
system.cpu1.num_fp_register_reads                   4                       # number of times the floating registers were read
system.cpu1.num_fp_register_writes                  8                       # number of times the floating registers were written
system.cpu1.num_func_calls                          0                       # number of times a function call or return occured
system.cpu1.num_idle_cycles                         0                       # Number of idle cycles
system.cpu1.num_int_alu_accesses                   23                       # Number of integer alu accesses
system.cpu1.num_int_insts                          23                       # number of integer instructions
system.cpu1.num_int_register_reads                 58                       # number of times the integer registers were read
system.cpu1.num_int_register_writes                 8                       # number of times the integer registers were written
system.cpu1.num_load_insts                         10                       # Number of load instructions
system.cpu1.num_mem_refs                           16                       # number of memory refs
system.cpu1.num_store_insts                         6                       # Number of store instructions
system.cpu1.num_vec_alu_accesses                    0                       # Number of vector alu accesses
system.cpu1.num_vec_insts                           0                       # number of vector instructions
system.cpu1.num_vec_register_reads                  0                       # number of times the vector registers were read
system.cpu1.num_vec_register_writes                 0                       # number of times the vector registers were written
system.cpu1.op_class::No_OpClass                    2      8.00%      8.00% # Class of executed instruction
system.cpu1.op_class::IntAlu                        7     28.00%     36.00% # Class of executed instruction
system.cpu1.op_class::IntMult                       0      0.00%     36.00% # Class of executed instruction
system.cpu1.op_class::IntDiv                        0      0.00%     36.00% # Class of executed instruction
system.cpu1.op_class::FloatAdd                      0      0.00%     36.00% # Class of executed instruction
system.cpu1.op_class::FloatCmp                      0      0.00%     36.00% # Class of executed instruction
system.cpu1.op_class::FloatCvt                      0      0.00%     36.00% # Class of executed instruction
system.cpu1.op_class::FloatMult                     0      0.00%     36.00% # Class of executed instruction
system.cpu1.op_class::FloatMultAcc                  0      0.00%     36.00% # Class of executed instruction
system.cpu1.op_class::FloatDiv                      0      0.00%     36.00% # Class of executed instruction
system.cpu1.op_class::FloatMisc                     0      0.00%     36.00% # Class of executed instruction
system.cpu1.op_class::FloatSqrt                     0      0.00%     36.00% # Class of executed instruction
system.cpu1.op_class::SimdAdd                       0      0.00%     36.00% # Class of executed instruction
system.cpu1.op_class::SimdAddAcc                    0      0.00%     36.00% # Class of executed instruction
system.cpu1.op_class::SimdAlu                       0      0.00%     36.00% # Class of executed instruction
system.cpu1.op_class::SimdCmp                       0      0.00%     36.00% # Class of executed instruction
system.cpu1.op_class::SimdCvt                       0      0.00%     36.00% # Class of executed instruction
system.cpu1.op_class::SimdMisc                      0      0.00%     36.00% # Class of executed instruction
system.cpu1.op_class::SimdMult                      0      0.00%     36.00% # Class of executed instruction
system.cpu1.op_class::SimdMultAcc                   0      0.00%     36.00% # Class of executed instruction
system.cpu1.op_class::SimdShift                     0      0.00%     36.00% # Class of executed instruction
system.cpu1.op_class::SimdShiftAcc                  0      0.00%     36.00% # Class of executed instruction
system.cpu1.op_class::SimdDiv                       0      0.00%     36.00% # Class of executed instruction
system.cpu1.op_class::SimdSqrt                      0      0.00%     36.00% # Class of executed instruction
system.cpu1.op_class::SimdFloatAdd                  0      0.00%     36.00% # Class of executed instruction
system.cpu1.op_class::SimdFloatAlu                  0      0.00%     36.00% # Class of executed instruction
system.cpu1.op_class::SimdFloatCmp                  0      0.00%     36.00% # Class of executed instruction
system.cpu1.op_class::SimdFloatCvt                  0      0.00%     36.00% # Class of executed instruction
system.cpu1.op_class::SimdFloatDiv                  0      0.00%     36.00% # Class of executed instruction
system.cpu1.op_class::SimdFloatMisc                 0      0.00%     36.00% # Class of executed instruction
system.cpu1.op_class::SimdFloatMult                 0      0.00%     36.00% # Class of executed instruction
system.cpu1.op_class::SimdFloatMultAcc              0      0.00%     36.00% # Class of executed instruction
system.cpu1.op_class::SimdFloatSqrt                 0      0.00%     36.00% # Class of executed instruction
system.cpu1.op_class::SimdReduceAdd                 0      0.00%     36.00% # Class of executed instruction
system.cpu1.op_class::SimdReduceAlu                 0      0.00%     36.00% # Class of executed instruction
system.cpu1.op_class::SimdReduceCmp                 0      0.00%     36.00% # Class of executed instruction
system.cpu1.op_class::SimdFloatReduceAdd            0      0.00%     36.00% # Class of executed instruction
system.cpu1.op_class::SimdFloatReduceCmp            0      0.00%     36.00% # Class of executed instruction
system.cpu1.op_class::SimdAes                       0      0.00%     36.00% # Class of executed instruction
system.cpu1.op_class::SimdAesMix                    0      0.00%     36.00% # Class of executed instruction
system.cpu1.op_class::SimdSha1Hash                  0      0.00%     36.00% # Class of executed instruction
system.cpu1.op_class::SimdSha1Hash2                 0      0.00%     36.00% # Class of executed instruction
system.cpu1.op_class::SimdSha256Hash                0      0.00%     36.00% # Class of executed instruction
system.cpu1.op_class::SimdSha256Hash2               0      0.00%     36.00% # Class of executed instruction
system.cpu1.op_class::SimdShaSigma2                 0      0.00%     36.00% # Class of executed instruction
system.cpu1.op_class::SimdShaSigma3                 0      0.00%     36.00% # Class of executed instruction
system.cpu1.op_class::SimdPredAlu                   0      0.00%     36.00% # Class of executed instruction
system.cpu1.op_class::MemRead                       2      8.00%     44.00% # Class of executed instruction
system.cpu1.op_class::MemWrite                      2      8.00%     52.00% # Class of executed instruction
system.cpu1.op_class::FloatMemRead                  8     32.00%     84.00% # Class of executed instruction
system.cpu1.op_class::FloatMemWrite                 4     16.00%    100.00% # Class of executed instruction
system.cpu1.op_class::IprAccess                     0      0.00%    100.00% # Class of executed instruction
system.cpu1.op_class::InstPrefetch                  0      0.00%    100.00% # Class of executed instruction
system.cpu1.op_class::total                        25                       # Class of executed instruction
system.cpu1.workload.numSyscalls                    0                       # Number of system calls
system.cpu2.Branches                                1                       # Number of branches fetched
system.cpu2.committedInsts                         11                       # Number of instructions committed
system.cpu2.committedOps                           23                       # Number of ops (including micro ops) committed
system.cpu2.idle_fraction                           0                       # Percentage of idle cycles
system.cpu2.l2bus.snoop_filter.hit_multi_requests          290                       # Number of requests hitting in the snoop filter with multiple (>1) holders of the requested data.
system.cpu2.l2bus.snoop_filter.hit_multi_snoops            0                       # Number of snoops hitting in the snoop filter with multiple (>1) holders of the requested data.
system.cpu2.l2bus.snoop_filter.hit_single_requests       226892                       # Number of requests hitting in the snoop filter with a single holder of the requested data.
system.cpu2.l2bus.snoop_filter.hit_single_snoops          354                       # Number of snoops hitting in the snoop filter with a single holder of the requested data.
system.cpu2.l2bus.snoop_filter.tot_requests       454159                       # Total number of requests made to the snoop filter.
system.cpu2.l2bus.snoop_filter.tot_snoops          354                       # Total number of snoops made to the snoop filter.
system.cpu2.mmucache.mmubus.snoop_filter.hit_multi_requests            0                       # Number of requests hitting in the snoop filter with multiple (>1) holders of the requested data.
system.cpu2.mmucache.mmubus.snoop_filter.hit_multi_snoops            0                       # Number of snoops hitting in the snoop filter with multiple (>1) holders of the requested data.
system.cpu2.mmucache.mmubus.snoop_filter.hit_single_requests            0                       # Number of requests hitting in the snoop filter with a single holder of the requested data.
system.cpu2.mmucache.mmubus.snoop_filter.hit_single_snoops            0                       # Number of snoops hitting in the snoop filter with a single holder of the requested data.
system.cpu2.mmucache.mmubus.snoop_filter.tot_requests            0                       # Total number of requests made to the snoop filter.
system.cpu2.mmucache.mmubus.snoop_filter.tot_snoops            0                       # Total number of snoops made to the snoop filter.
system.cpu2.not_idle_fraction                       1                       # Percentage of non-idle cycles
system.cpu2.numCycles                              30                       # number of cpu cycles simulated
system.cpu2.numWorkItemsCompleted                   0                       # number of work items this cpu completed
system.cpu2.numWorkItemsStarted                     0                       # number of work items this cpu started
system.cpu2.num_busy_cycles                        30                       # Number of busy cycles
system.cpu2.num_cc_register_reads                   5                       # number of times the CC registers were read
system.cpu2.num_cc_register_writes                  4                       # number of times the CC registers were written
system.cpu2.num_conditional_control_insts            1                       # number of instructions that are conditional controls
system.cpu2.num_fp_alu_accesses                    12                       # Number of float alu accesses
system.cpu2.num_fp_insts                           12                       # number of float instructions
system.cpu2.num_fp_register_reads                   4                       # number of times the floating registers were read
system.cpu2.num_fp_register_writes                  8                       # number of times the floating registers were written
system.cpu2.num_func_calls                          0                       # number of times a function call or return occured
system.cpu2.num_idle_cycles                         0                       # Number of idle cycles
system.cpu2.num_int_alu_accesses                   23                       # Number of integer alu accesses
system.cpu2.num_int_insts                          23                       # number of integer instructions
system.cpu2.num_int_register_reads                 58                       # number of times the integer registers were read
system.cpu2.num_int_register_writes                 8                       # number of times the integer registers were written
system.cpu2.num_load_insts                         10                       # Number of load instructions
system.cpu2.num_mem_refs                           16                       # number of memory refs
system.cpu2.num_store_insts                         6                       # Number of store instructions
system.cpu2.num_vec_alu_accesses                    0                       # Number of vector alu accesses
system.cpu2.num_vec_insts                           0                       # number of vector instructions
system.cpu2.num_vec_register_reads                  0                       # number of times the vector registers were read
system.cpu2.num_vec_register_writes                 0                       # number of times the vector registers were written
system.cpu2.op_class::No_OpClass                    2      8.00%      8.00% # Class of executed instruction
system.cpu2.op_class::IntAlu                        7     28.00%     36.00% # Class of executed instruction
system.cpu2.op_class::IntMult                       0      0.00%     36.00% # Class of executed instruction
system.cpu2.op_class::IntDiv                        0      0.00%     36.00% # Class of executed instruction
system.cpu2.op_class::FloatAdd                      0      0.00%     36.00% # Class of executed instruction
system.cpu2.op_class::FloatCmp                      0      0.00%     36.00% # Class of executed instruction
system.cpu2.op_class::FloatCvt                      0      0.00%     36.00% # Class of executed instruction
system.cpu2.op_class::FloatMult                     0      0.00%     36.00% # Class of executed instruction
system.cpu2.op_class::FloatMultAcc                  0      0.00%     36.00% # Class of executed instruction
system.cpu2.op_class::FloatDiv                      0      0.00%     36.00% # Class of executed instruction
system.cpu2.op_class::FloatMisc                     0      0.00%     36.00% # Class of executed instruction
system.cpu2.op_class::FloatSqrt                     0      0.00%     36.00% # Class of executed instruction
system.cpu2.op_class::SimdAdd                       0      0.00%     36.00% # Class of executed instruction
system.cpu2.op_class::SimdAddAcc                    0      0.00%     36.00% # Class of executed instruction
system.cpu2.op_class::SimdAlu                       0      0.00%     36.00% # Class of executed instruction
system.cpu2.op_class::SimdCmp                       0      0.00%     36.00% # Class of executed instruction
system.cpu2.op_class::SimdCvt                       0      0.00%     36.00% # Class of executed instruction
system.cpu2.op_class::SimdMisc                      0      0.00%     36.00% # Class of executed instruction
system.cpu2.op_class::SimdMult                      0      0.00%     36.00% # Class of executed instruction
system.cpu2.op_class::SimdMultAcc                   0      0.00%     36.00% # Class of executed instruction
system.cpu2.op_class::SimdShift                     0      0.00%     36.00% # Class of executed instruction
system.cpu2.op_class::SimdShiftAcc                  0      0.00%     36.00% # Class of executed instruction
system.cpu2.op_class::SimdDiv                       0      0.00%     36.00% # Class of executed instruction
system.cpu2.op_class::SimdSqrt                      0      0.00%     36.00% # Class of executed instruction
system.cpu2.op_class::SimdFloatAdd                  0      0.00%     36.00% # Class of executed instruction
system.cpu2.op_class::SimdFloatAlu                  0      0.00%     36.00% # Class of executed instruction
system.cpu2.op_class::SimdFloatCmp                  0      0.00%     36.00% # Class of executed instruction
system.cpu2.op_class::SimdFloatCvt                  0      0.00%     36.00% # Class of executed instruction
system.cpu2.op_class::SimdFloatDiv                  0      0.00%     36.00% # Class of executed instruction
system.cpu2.op_class::SimdFloatMisc                 0      0.00%     36.00% # Class of executed instruction
system.cpu2.op_class::SimdFloatMult                 0      0.00%     36.00% # Class of executed instruction
system.cpu2.op_class::SimdFloatMultAcc              0      0.00%     36.00% # Class of executed instruction
system.cpu2.op_class::SimdFloatSqrt                 0      0.00%     36.00% # Class of executed instruction
system.cpu2.op_class::SimdReduceAdd                 0      0.00%     36.00% # Class of executed instruction
system.cpu2.op_class::SimdReduceAlu                 0      0.00%     36.00% # Class of executed instruction
system.cpu2.op_class::SimdReduceCmp                 0      0.00%     36.00% # Class of executed instruction
system.cpu2.op_class::SimdFloatReduceAdd            0      0.00%     36.00% # Class of executed instruction
system.cpu2.op_class::SimdFloatReduceCmp            0      0.00%     36.00% # Class of executed instruction
system.cpu2.op_class::SimdAes                       0      0.00%     36.00% # Class of executed instruction
system.cpu2.op_class::SimdAesMix                    0      0.00%     36.00% # Class of executed instruction
system.cpu2.op_class::SimdSha1Hash                  0      0.00%     36.00% # Class of executed instruction
system.cpu2.op_class::SimdSha1Hash2                 0      0.00%     36.00% # Class of executed instruction
system.cpu2.op_class::SimdSha256Hash                0      0.00%     36.00% # Class of executed instruction
system.cpu2.op_class::SimdSha256Hash2               0      0.00%     36.00% # Class of executed instruction
system.cpu2.op_class::SimdShaSigma2                 0      0.00%     36.00% # Class of executed instruction
system.cpu2.op_class::SimdShaSigma3                 0      0.00%     36.00% # Class of executed instruction
system.cpu2.op_class::SimdPredAlu                   0      0.00%     36.00% # Class of executed instruction
system.cpu2.op_class::MemRead                       2      8.00%     44.00% # Class of executed instruction
system.cpu2.op_class::MemWrite                      2      8.00%     52.00% # Class of executed instruction
system.cpu2.op_class::FloatMemRead                  8     32.00%     84.00% # Class of executed instruction
system.cpu2.op_class::FloatMemWrite                 4     16.00%    100.00% # Class of executed instruction
system.cpu2.op_class::IprAccess                     0      0.00%    100.00% # Class of executed instruction
system.cpu2.op_class::InstPrefetch                  0      0.00%    100.00% # Class of executed instruction
system.cpu2.op_class::total                        25                       # Class of executed instruction
system.cpu2.workload.numSyscalls                    0                       # Number of system calls
system.cpu3.Branches                                1                       # Number of branches fetched
system.cpu3.committedInsts                         11                       # Number of instructions committed
system.cpu3.committedOps                           23                       # Number of ops (including micro ops) committed
system.cpu3.idle_fraction                           0                       # Percentage of idle cycles
system.cpu3.l2bus.snoop_filter.hit_multi_requests          289                       # Number of requests hitting in the snoop filter with multiple (>1) holders of the requested data.
system.cpu3.l2bus.snoop_filter.hit_multi_snoops            0                       # Number of snoops hitting in the snoop filter with multiple (>1) holders of the requested data.
system.cpu3.l2bus.snoop_filter.hit_single_requests       227036                       # Number of requests hitting in the snoop filter with a single holder of the requested data.
system.cpu3.l2bus.snoop_filter.hit_single_snoops          271                       # Number of snoops hitting in the snoop filter with a single holder of the requested data.
system.cpu3.l2bus.snoop_filter.tot_requests       454320                       # Total number of requests made to the snoop filter.
system.cpu3.l2bus.snoop_filter.tot_snoops          271                       # Total number of snoops made to the snoop filter.
system.cpu3.mmucache.mmubus.snoop_filter.hit_multi_requests            0                       # Number of requests hitting in the snoop filter with multiple (>1) holders of the requested data.
system.cpu3.mmucache.mmubus.snoop_filter.hit_multi_snoops            0                       # Number of snoops hitting in the snoop filter with multiple (>1) holders of the requested data.
system.cpu3.mmucache.mmubus.snoop_filter.hit_single_requests            0                       # Number of requests hitting in the snoop filter with a single holder of the requested data.
system.cpu3.mmucache.mmubus.snoop_filter.hit_single_snoops            0                       # Number of snoops hitting in the snoop filter with a single holder of the requested data.
system.cpu3.mmucache.mmubus.snoop_filter.tot_requests            0                       # Total number of requests made to the snoop filter.
system.cpu3.mmucache.mmubus.snoop_filter.tot_snoops            0                       # Total number of snoops made to the snoop filter.
system.cpu3.not_idle_fraction                       1                       # Percentage of non-idle cycles
system.cpu3.numCycles                              30                       # number of cpu cycles simulated
system.cpu3.numWorkItemsCompleted                   0                       # number of work items this cpu completed
system.cpu3.numWorkItemsStarted                     0                       # number of work items this cpu started
system.cpu3.num_busy_cycles                        30                       # Number of busy cycles
system.cpu3.num_cc_register_reads                   5                       # number of times the CC registers were read
system.cpu3.num_cc_register_writes                  4                       # number of times the CC registers were written
system.cpu3.num_conditional_control_insts            1                       # number of instructions that are conditional controls
system.cpu3.num_fp_alu_accesses                    12                       # Number of float alu accesses
system.cpu3.num_fp_insts                           12                       # number of float instructions
system.cpu3.num_fp_register_reads                   4                       # number of times the floating registers were read
system.cpu3.num_fp_register_writes                  8                       # number of times the floating registers were written
system.cpu3.num_func_calls                          0                       # number of times a function call or return occured
system.cpu3.num_idle_cycles                         0                       # Number of idle cycles
system.cpu3.num_int_alu_accesses                   23                       # Number of integer alu accesses
system.cpu3.num_int_insts                          23                       # number of integer instructions
system.cpu3.num_int_register_reads                 58                       # number of times the integer registers were read
system.cpu3.num_int_register_writes                 8                       # number of times the integer registers were written
system.cpu3.num_load_insts                         10                       # Number of load instructions
system.cpu3.num_mem_refs                           16                       # number of memory refs
system.cpu3.num_store_insts                         6                       # Number of store instructions
system.cpu3.num_vec_alu_accesses                    0                       # Number of vector alu accesses
system.cpu3.num_vec_insts                           0                       # number of vector instructions
system.cpu3.num_vec_register_reads                  0                       # number of times the vector registers were read
system.cpu3.num_vec_register_writes                 0                       # number of times the vector registers were written
system.cpu3.op_class::No_OpClass                    2      8.00%      8.00% # Class of executed instruction
system.cpu3.op_class::IntAlu                        7     28.00%     36.00% # Class of executed instruction
system.cpu3.op_class::IntMult                       0      0.00%     36.00% # Class of executed instruction
system.cpu3.op_class::IntDiv                        0      0.00%     36.00% # Class of executed instruction
system.cpu3.op_class::FloatAdd                      0      0.00%     36.00% # Class of executed instruction
system.cpu3.op_class::FloatCmp                      0      0.00%     36.00% # Class of executed instruction
system.cpu3.op_class::FloatCvt                      0      0.00%     36.00% # Class of executed instruction
system.cpu3.op_class::FloatMult                     0      0.00%     36.00% # Class of executed instruction
system.cpu3.op_class::FloatMultAcc                  0      0.00%     36.00% # Class of executed instruction
system.cpu3.op_class::FloatDiv                      0      0.00%     36.00% # Class of executed instruction
system.cpu3.op_class::FloatMisc                     0      0.00%     36.00% # Class of executed instruction
system.cpu3.op_class::FloatSqrt                     0      0.00%     36.00% # Class of executed instruction
system.cpu3.op_class::SimdAdd                       0      0.00%     36.00% # Class of executed instruction
system.cpu3.op_class::SimdAddAcc                    0      0.00%     36.00% # Class of executed instruction
system.cpu3.op_class::SimdAlu                       0      0.00%     36.00% # Class of executed instruction
system.cpu3.op_class::SimdCmp                       0      0.00%     36.00% # Class of executed instruction
system.cpu3.op_class::SimdCvt                       0      0.00%     36.00% # Class of executed instruction
system.cpu3.op_class::SimdMisc                      0      0.00%     36.00% # Class of executed instruction
system.cpu3.op_class::SimdMult                      0      0.00%     36.00% # Class of executed instruction
system.cpu3.op_class::SimdMultAcc                   0      0.00%     36.00% # Class of executed instruction
system.cpu3.op_class::SimdShift                     0      0.00%     36.00% # Class of executed instruction
system.cpu3.op_class::SimdShiftAcc                  0      0.00%     36.00% # Class of executed instruction
system.cpu3.op_class::SimdDiv                       0      0.00%     36.00% # Class of executed instruction
system.cpu3.op_class::SimdSqrt                      0      0.00%     36.00% # Class of executed instruction
system.cpu3.op_class::SimdFloatAdd                  0      0.00%     36.00% # Class of executed instruction
system.cpu3.op_class::SimdFloatAlu                  0      0.00%     36.00% # Class of executed instruction
system.cpu3.op_class::SimdFloatCmp                  0      0.00%     36.00% # Class of executed instruction
system.cpu3.op_class::SimdFloatCvt                  0      0.00%     36.00% # Class of executed instruction
system.cpu3.op_class::SimdFloatDiv                  0      0.00%     36.00% # Class of executed instruction
system.cpu3.op_class::SimdFloatMisc                 0      0.00%     36.00% # Class of executed instruction
system.cpu3.op_class::SimdFloatMult                 0      0.00%     36.00% # Class of executed instruction
system.cpu3.op_class::SimdFloatMultAcc              0      0.00%     36.00% # Class of executed instruction
system.cpu3.op_class::SimdFloatSqrt                 0      0.00%     36.00% # Class of executed instruction
system.cpu3.op_class::SimdReduceAdd                 0      0.00%     36.00% # Class of executed instruction
system.cpu3.op_class::SimdReduceAlu                 0      0.00%     36.00% # Class of executed instruction
system.cpu3.op_class::SimdReduceCmp                 0      0.00%     36.00% # Class of executed instruction
system.cpu3.op_class::SimdFloatReduceAdd            0      0.00%     36.00% # Class of executed instruction
system.cpu3.op_class::SimdFloatReduceCmp            0      0.00%     36.00% # Class of executed instruction
system.cpu3.op_class::SimdAes                       0      0.00%     36.00% # Class of executed instruction
system.cpu3.op_class::SimdAesMix                    0      0.00%     36.00% # Class of executed instruction
system.cpu3.op_class::SimdSha1Hash                  0      0.00%     36.00% # Class of executed instruction
system.cpu3.op_class::SimdSha1Hash2                 0      0.00%     36.00% # Class of executed instruction
system.cpu3.op_class::SimdSha256Hash                0      0.00%     36.00% # Class of executed instruction
system.cpu3.op_class::SimdSha256Hash2               0      0.00%     36.00% # Class of executed instruction
system.cpu3.op_class::SimdShaSigma2                 0      0.00%     36.00% # Class of executed instruction
system.cpu3.op_class::SimdShaSigma3                 0      0.00%     36.00% # Class of executed instruction
system.cpu3.op_class::SimdPredAlu                   0      0.00%     36.00% # Class of executed instruction
system.cpu3.op_class::MemRead                       2      8.00%     44.00% # Class of executed instruction
system.cpu3.op_class::MemWrite                      2      8.00%     52.00% # Class of executed instruction
system.cpu3.op_class::FloatMemRead                  8     32.00%     84.00% # Class of executed instruction
system.cpu3.op_class::FloatMemWrite                 4     16.00%    100.00% # Class of executed instruction
system.cpu3.op_class::IprAccess                     0      0.00%    100.00% # Class of executed instruction
system.cpu3.op_class::InstPrefetch                  0      0.00%    100.00% # Class of executed instruction
system.cpu3.op_class::total                        25                       # Class of executed instruction
system.cpu3.workload.numSyscalls                    0                       # Number of system calls
system.l3bus.snoop_filter.hit_multi_requests            0                       # Number of requests hitting in the snoop filter with multiple (>1) holders of the requested data.
system.l3bus.snoop_filter.hit_multi_snoops            0                       # Number of snoops hitting in the snoop filter with multiple (>1) holders of the requested data.
system.l3bus.snoop_filter.hit_single_requests       423912                       # Number of requests hitting in the snoop filter with a single holder of the requested data.
system.l3bus.snoop_filter.hit_single_snoops            0                       # Number of snoops hitting in the snoop filter with a single holder of the requested data.
system.l3bus.snoop_filter.tot_requests         858114                       # Total number of requests made to the snoop filter.
system.l3bus.snoop_filter.tot_snoops                0                       # Total number of snoops made to the snoop filter.
system.membus.snoop_filter.hit_multi_requests            0                       # Number of requests hitting in the snoop filter with multiple (>1) holders of the requested data.
system.membus.snoop_filter.hit_multi_snoops            0                       # Number of snoops hitting in the snoop filter with multiple (>1) holders of the requested data.
system.membus.snoop_filter.hit_single_requests       335625                       # Number of requests hitting in the snoop filter with a single holder of the requested data.
system.membus.snoop_filter.hit_single_snoops            0                       # Number of snoops hitting in the snoop filter with a single holder of the requested data.
system.membus.snoop_filter.tot_requests        746875                       # Total number of requests made to the snoop filter.
system.membus.snoop_filter.tot_snoops               0                       # Total number of snoops made to the snoop filter.
system.switch_cpus0.cc_regfile_reads        213993062                       # number of cc regfile reads
system.switch_cpus0.cc_regfile_writes       252656898                       # number of cc regfile writes
system.switch_cpus0.committedInsts          250000001                       # Number of Instructions Simulated
system.switch_cpus0.committedOps            362744697                       # Number of Ops (including micro ops) Simulated
system.switch_cpus0.cpi                      0.880777                       # CPI: Cycles Per Instruction
system.switch_cpus0.cpi_total                0.880777                       # CPI: Total CPI of All Threads
system.switch_cpus0.fp_regfile_reads          6381821                       # number of floating regfile reads
system.switch_cpus0.fp_regfile_writes         6349362                       # number of floating regfile writes
system.switch_cpus0.idleCycles                  47824                       # Total number of cycles that the CPU has spent unscheduled due to idling
system.switch_cpus0.iew.branchMispredicts      3375612                       # Number of branch mispredicts detected at execute
system.switch_cpus0.iew.exec_branches        39344525                       # Number of branches executed
system.switch_cpus0.iew.exec_nop                    0                       # number of nop insts executed
system.switch_cpus0.iew.exec_rate            2.240855                       # Inst execution rate
system.switch_cpus0.iew.exec_refs            85824229                       # number of memory reference insts executed
system.switch_cpus0.iew.exec_stores          26458653                       # Number of stores executed
system.switch_cpus0.iew.exec_swp                    0                       # number of swp insts executed
system.switch_cpus0.iew.iewBlockCycles       41406347                       # Number of cycles IEW is blocking
system.switch_cpus0.iew.iewDispLoadInsts     69489176                       # Number of dispatched load instructions
system.switch_cpus0.iew.iewDispNonSpecInsts            0                       # Number of dispatched non-speculative instructions
system.switch_cpus0.iew.iewDispSquashedInsts         7685                       # Number of squashed instructions skipped by dispatch
system.switch_cpus0.iew.iewDispStoreInsts     37376016                       # Number of dispatched store instructions
system.switch_cpus0.iew.iewDispatchedInsts    622572374                       # Number of instructions dispatched to IQ
system.switch_cpus0.iew.iewExecLoadInsts     59365576                       # Number of load instructions executed
system.switch_cpus0.iew.iewExecSquashedInsts      6093694                       # Number of squashed instructions skipped in execute
system.switch_cpus0.iew.iewExecutedInsts    493423340                       # Number of executed instructions
system.switch_cpus0.iew.iewIQFullEvents        135868                       # Number of times the IQ has become full, causing a stall
system.switch_cpus0.iew.iewIdleCycles               0                       # Number of cycles IEW is idle
system.switch_cpus0.iew.iewLSQFullEvents       668136                       # Number of times the LSQ has become full, causing a stall
system.switch_cpus0.iew.iewSquashCycles       3297256                       # Number of cycles IEW is squashing
system.switch_cpus0.iew.iewUnblockCycles       785890                       # Number of cycles IEW is unblocking
system.switch_cpus0.iew.memOrderViolationEvents        19547                       # Number of memory order violations
system.switch_cpus0.iew.predictedNotTakenIncorrect      1332118                       # Number of branches that were predicted not taken incorrectly
system.switch_cpus0.iew.predictedTakenIncorrect      2043494                       # Number of branches that were predicted taken incorrectly
system.switch_cpus0.iew.wb_consumers        720064277                       # num instructions consuming a value
system.switch_cpus0.iew.wb_count            488645770                       # cumulative count of insts written-back
system.switch_cpus0.iew.wb_fanout            0.543080                       # average fanout of values written-back
system.switch_cpus0.iew.wb_producers        391052158                       # num instructions producing a value
system.switch_cpus0.iew.wb_rate              2.219158                       # insts written-back per cycle
system.switch_cpus0.iew.wb_sent             492879938                       # cumulative count of insts sent to commit
system.switch_cpus0.int_regfile_reads       794321640                       # number of integer regfile reads
system.switch_cpus0.int_regfile_writes      426885718                       # number of integer regfile writes
system.switch_cpus0.ipc                      1.135361                       # IPC: Instructions Per Cycle
system.switch_cpus0.ipc_total                1.135361                       # IPC: Total IPC of All Threads
system.switch_cpus0.iq.FU_type_0::No_OpClass      3143878      0.63%      0.63% # Type of FU issued
system.switch_cpus0.iq.FU_type_0::IntAlu    398563787     79.79%     80.42% # Type of FU issued
system.switch_cpus0.iq.FU_type_0::IntMult      9295949      1.86%     82.28% # Type of FU issued
system.switch_cpus0.iq.FU_type_0::IntDiv            0      0.00%     82.28% # Type of FU issued
system.switch_cpus0.iq.FU_type_0::FloatAdd            0      0.00%     82.28% # Type of FU issued
system.switch_cpus0.iq.FU_type_0::FloatCmp            0      0.00%     82.28% # Type of FU issued
system.switch_cpus0.iq.FU_type_0::FloatCvt            0      0.00%     82.28% # Type of FU issued
system.switch_cpus0.iq.FU_type_0::FloatMult            0      0.00%     82.28% # Type of FU issued
system.switch_cpus0.iq.FU_type_0::FloatMultAcc            0      0.00%     82.28% # Type of FU issued
system.switch_cpus0.iq.FU_type_0::FloatDiv            0      0.00%     82.28% # Type of FU issued
system.switch_cpus0.iq.FU_type_0::FloatMisc            0      0.00%     82.28% # Type of FU issued
system.switch_cpus0.iq.FU_type_0::FloatSqrt            0      0.00%     82.28% # Type of FU issued
system.switch_cpus0.iq.FU_type_0::SimdAdd            0      0.00%     82.28% # Type of FU issued
system.switch_cpus0.iq.FU_type_0::SimdAddAcc            0      0.00%     82.28% # Type of FU issued
system.switch_cpus0.iq.FU_type_0::SimdAlu            0      0.00%     82.28% # Type of FU issued
system.switch_cpus0.iq.FU_type_0::SimdCmp            0      0.00%     82.28% # Type of FU issued
system.switch_cpus0.iq.FU_type_0::SimdCvt            0      0.00%     82.28% # Type of FU issued
system.switch_cpus0.iq.FU_type_0::SimdMisc            0      0.00%     82.28% # Type of FU issued
system.switch_cpus0.iq.FU_type_0::SimdMult            0      0.00%     82.28% # Type of FU issued
system.switch_cpus0.iq.FU_type_0::SimdMultAcc            0      0.00%     82.28% # Type of FU issued
system.switch_cpus0.iq.FU_type_0::SimdShift            0      0.00%     82.28% # Type of FU issued
system.switch_cpus0.iq.FU_type_0::SimdShiftAcc            0      0.00%     82.28% # Type of FU issued
system.switch_cpus0.iq.FU_type_0::SimdDiv            0      0.00%     82.28% # Type of FU issued
system.switch_cpus0.iq.FU_type_0::SimdSqrt            0      0.00%     82.28% # Type of FU issued
system.switch_cpus0.iq.FU_type_0::SimdFloatAdd            0      0.00%     82.28% # Type of FU issued
system.switch_cpus0.iq.FU_type_0::SimdFloatAlu            0      0.00%     82.28% # Type of FU issued
system.switch_cpus0.iq.FU_type_0::SimdFloatCmp            0      0.00%     82.28% # Type of FU issued
system.switch_cpus0.iq.FU_type_0::SimdFloatCvt            0      0.00%     82.28% # Type of FU issued
system.switch_cpus0.iq.FU_type_0::SimdFloatDiv            0      0.00%     82.28% # Type of FU issued
system.switch_cpus0.iq.FU_type_0::SimdFloatMisc            0      0.00%     82.28% # Type of FU issued
system.switch_cpus0.iq.FU_type_0::SimdFloatMult            0      0.00%     82.28% # Type of FU issued
system.switch_cpus0.iq.FU_type_0::SimdFloatMultAcc            0      0.00%     82.28% # Type of FU issued
system.switch_cpus0.iq.FU_type_0::SimdFloatSqrt            0      0.00%     82.28% # Type of FU issued
system.switch_cpus0.iq.FU_type_0::SimdReduceAdd            0      0.00%     82.28% # Type of FU issued
system.switch_cpus0.iq.FU_type_0::SimdReduceAlu            0      0.00%     82.28% # Type of FU issued
system.switch_cpus0.iq.FU_type_0::SimdReduceCmp            0      0.00%     82.28% # Type of FU issued
system.switch_cpus0.iq.FU_type_0::SimdFloatReduceAdd            0      0.00%     82.28% # Type of FU issued
system.switch_cpus0.iq.FU_type_0::SimdFloatReduceCmp            0      0.00%     82.28% # Type of FU issued
system.switch_cpus0.iq.FU_type_0::SimdAes            0      0.00%     82.28% # Type of FU issued
system.switch_cpus0.iq.FU_type_0::SimdAesMix            0      0.00%     82.28% # Type of FU issued
system.switch_cpus0.iq.FU_type_0::SimdSha1Hash            0      0.00%     82.28% # Type of FU issued
system.switch_cpus0.iq.FU_type_0::SimdSha1Hash2            0      0.00%     82.28% # Type of FU issued
system.switch_cpus0.iq.FU_type_0::SimdSha256Hash            0      0.00%     82.28% # Type of FU issued
system.switch_cpus0.iq.FU_type_0::SimdSha256Hash2            0      0.00%     82.28% # Type of FU issued
system.switch_cpus0.iq.FU_type_0::SimdShaSigma2            0      0.00%     82.28% # Type of FU issued
system.switch_cpus0.iq.FU_type_0::SimdShaSigma3            0      0.00%     82.28% # Type of FU issued
system.switch_cpus0.iq.FU_type_0::SimdPredAlu            0      0.00%     82.28% # Type of FU issued
system.switch_cpus0.iq.FU_type_0::MemRead     54121331     10.83%     93.11% # Type of FU issued
system.switch_cpus0.iq.FU_type_0::MemWrite     21568795      4.32%     97.43% # Type of FU issued
system.switch_cpus0.iq.FU_type_0::FloatMemRead      6427532      1.29%     98.72% # Type of FU issued
system.switch_cpus0.iq.FU_type_0::FloatMemWrite      6395765      1.28%    100.00% # Type of FU issued
system.switch_cpus0.iq.FU_type_0::IprAccess            0      0.00%    100.00% # Type of FU issued
system.switch_cpus0.iq.FU_type_0::InstPrefetch            0      0.00%    100.00% # Type of FU issued
system.switch_cpus0.iq.FU_type_0::total     499517037                       # Type of FU issued
system.switch_cpus0.iq.fp_alu_accesses       15594790                       # Number of floating point alu accesses
system.switch_cpus0.iq.fp_inst_queue_reads     28424801                       # Number of floating instruction queue reads
system.switch_cpus0.iq.fp_inst_queue_wakeup_accesses     12711400                       # Number of floating instruction queue wakeup accesses
system.switch_cpus0.iq.fp_inst_queue_writes     24765722                       # Number of floating instruction queue writes
system.switch_cpus0.iq.fu_busy_cnt            7855649                       # FU busy when requested
system.switch_cpus0.iq.fu_busy_rate          0.015726                       # FU busy rate (busy events/executed inst)
system.switch_cpus0.iq.fu_full::No_OpClass            0      0.00%      0.00% # attempts to use FU when none available
system.switch_cpus0.iq.fu_full::IntAlu        3190808     40.62%     40.62% # attempts to use FU when none available
system.switch_cpus0.iq.fu_full::IntMult             0      0.00%     40.62% # attempts to use FU when none available
system.switch_cpus0.iq.fu_full::IntDiv              0      0.00%     40.62% # attempts to use FU when none available
system.switch_cpus0.iq.fu_full::FloatAdd            0      0.00%     40.62% # attempts to use FU when none available
system.switch_cpus0.iq.fu_full::FloatCmp            0      0.00%     40.62% # attempts to use FU when none available
system.switch_cpus0.iq.fu_full::FloatCvt            0      0.00%     40.62% # attempts to use FU when none available
system.switch_cpus0.iq.fu_full::FloatMult            0      0.00%     40.62% # attempts to use FU when none available
system.switch_cpus0.iq.fu_full::FloatMultAcc            0      0.00%     40.62% # attempts to use FU when none available
system.switch_cpus0.iq.fu_full::FloatDiv            0      0.00%     40.62% # attempts to use FU when none available
system.switch_cpus0.iq.fu_full::FloatMisc            0      0.00%     40.62% # attempts to use FU when none available
system.switch_cpus0.iq.fu_full::FloatSqrt            0      0.00%     40.62% # attempts to use FU when none available
system.switch_cpus0.iq.fu_full::SimdAdd             0      0.00%     40.62% # attempts to use FU when none available
system.switch_cpus0.iq.fu_full::SimdAddAcc            0      0.00%     40.62% # attempts to use FU when none available
system.switch_cpus0.iq.fu_full::SimdAlu             0      0.00%     40.62% # attempts to use FU when none available
system.switch_cpus0.iq.fu_full::SimdCmp             0      0.00%     40.62% # attempts to use FU when none available
system.switch_cpus0.iq.fu_full::SimdCvt             0      0.00%     40.62% # attempts to use FU when none available
system.switch_cpus0.iq.fu_full::SimdMisc            0      0.00%     40.62% # attempts to use FU when none available
system.switch_cpus0.iq.fu_full::SimdMult            0      0.00%     40.62% # attempts to use FU when none available
system.switch_cpus0.iq.fu_full::SimdMultAcc            0      0.00%     40.62% # attempts to use FU when none available
system.switch_cpus0.iq.fu_full::SimdShift            0      0.00%     40.62% # attempts to use FU when none available
system.switch_cpus0.iq.fu_full::SimdShiftAcc            0      0.00%     40.62% # attempts to use FU when none available
system.switch_cpus0.iq.fu_full::SimdDiv             0      0.00%     40.62% # attempts to use FU when none available
system.switch_cpus0.iq.fu_full::SimdSqrt            0      0.00%     40.62% # attempts to use FU when none available
system.switch_cpus0.iq.fu_full::SimdFloatAdd            0      0.00%     40.62% # attempts to use FU when none available
system.switch_cpus0.iq.fu_full::SimdFloatAlu            0      0.00%     40.62% # attempts to use FU when none available
system.switch_cpus0.iq.fu_full::SimdFloatCmp            0      0.00%     40.62% # attempts to use FU when none available
system.switch_cpus0.iq.fu_full::SimdFloatCvt            0      0.00%     40.62% # attempts to use FU when none available
system.switch_cpus0.iq.fu_full::SimdFloatDiv            0      0.00%     40.62% # attempts to use FU when none available
system.switch_cpus0.iq.fu_full::SimdFloatMisc            0      0.00%     40.62% # attempts to use FU when none available
system.switch_cpus0.iq.fu_full::SimdFloatMult            0      0.00%     40.62% # attempts to use FU when none available
system.switch_cpus0.iq.fu_full::SimdFloatMultAcc            0      0.00%     40.62% # attempts to use FU when none available
system.switch_cpus0.iq.fu_full::SimdFloatSqrt            0      0.00%     40.62% # attempts to use FU when none available
system.switch_cpus0.iq.fu_full::SimdReduceAdd            0      0.00%     40.62% # attempts to use FU when none available
system.switch_cpus0.iq.fu_full::SimdReduceAlu            0      0.00%     40.62% # attempts to use FU when none available
system.switch_cpus0.iq.fu_full::SimdReduceCmp            0      0.00%     40.62% # attempts to use FU when none available
system.switch_cpus0.iq.fu_full::SimdFloatReduceAdd            0      0.00%     40.62% # attempts to use FU when none available
system.switch_cpus0.iq.fu_full::SimdFloatReduceCmp            0      0.00%     40.62% # attempts to use FU when none available
system.switch_cpus0.iq.fu_full::SimdAes             0      0.00%     40.62% # attempts to use FU when none available
system.switch_cpus0.iq.fu_full::SimdAesMix            0      0.00%     40.62% # attempts to use FU when none available
system.switch_cpus0.iq.fu_full::SimdSha1Hash            0      0.00%     40.62% # attempts to use FU when none available
system.switch_cpus0.iq.fu_full::SimdSha1Hash2            0      0.00%     40.62% # attempts to use FU when none available
system.switch_cpus0.iq.fu_full::SimdSha256Hash            0      0.00%     40.62% # attempts to use FU when none available
system.switch_cpus0.iq.fu_full::SimdSha256Hash2            0      0.00%     40.62% # attempts to use FU when none available
system.switch_cpus0.iq.fu_full::SimdShaSigma2            0      0.00%     40.62% # attempts to use FU when none available
system.switch_cpus0.iq.fu_full::SimdShaSigma3            0      0.00%     40.62% # attempts to use FU when none available
system.switch_cpus0.iq.fu_full::SimdPredAlu            0      0.00%     40.62% # attempts to use FU when none available
system.switch_cpus0.iq.fu_full::MemRead        338534      4.31%     44.93% # attempts to use FU when none available
system.switch_cpus0.iq.fu_full::MemWrite      1554814     19.79%     64.72% # attempts to use FU when none available
system.switch_cpus0.iq.fu_full::FloatMemRead      1937347     24.66%     89.38% # attempts to use FU when none available
system.switch_cpus0.iq.fu_full::FloatMemWrite       834146     10.62%    100.00% # attempts to use FU when none available
system.switch_cpus0.iq.fu_full::IprAccess            0      0.00%    100.00% # attempts to use FU when none available
system.switch_cpus0.iq.fu_full::InstPrefetch            0      0.00%    100.00% # attempts to use FU when none available
system.switch_cpus0.iq.int_alu_accesses     488634018                       # Number of integer alu accesses
system.switch_cpus0.iq.int_inst_queue_reads   1198829522                       # Number of integer instruction queue reads
system.switch_cpus0.iq.int_inst_queue_wakeup_accesses    475934370                       # Number of integer instruction queue wakeup accesses
system.switch_cpus0.iq.int_inst_queue_writes    857653469                       # Number of integer instruction queue writes
system.switch_cpus0.iq.iqInstsAdded         622559158                       # Number of instructions added to the IQ (excludes non-spec)
system.switch_cpus0.iq.iqInstsIssued        499517037                       # Number of instructions issued
system.switch_cpus0.iq.iqNonSpecInstsAdded        13216                       # Number of non-speculative instructions added to the IQ
system.switch_cpus0.iq.iqSquashedInstsExamined    259827586                       # Number of squashed instructions iterated over during squash; mainly for profiling
system.switch_cpus0.iq.iqSquashedInstsIssued       218200                       # Number of squashed instructions issued
system.switch_cpus0.iq.iqSquashedNonSpecRemoved        12618                       # Number of squashed non-spec instructions that were removed
system.switch_cpus0.iq.iqSquashedOperandsExamined    409587542                       # Number of squashed operands that are examined and possibly removed from graph
system.switch_cpus0.iq.issued_per_cycle::samples    220146403                       # Number of insts issued each cycle
system.switch_cpus0.iq.issued_per_cycle::mean     2.269022                       # Number of insts issued each cycle
system.switch_cpus0.iq.issued_per_cycle::stdev     2.224789                       # Number of insts issued each cycle
system.switch_cpus0.iq.issued_per_cycle::underflows            0      0.00%      0.00% # Number of insts issued each cycle
system.switch_cpus0.iq.issued_per_cycle::0     78397779     35.61%     35.61% # Number of insts issued each cycle
system.switch_cpus0.iq.issued_per_cycle::1     21311793      9.68%     45.29% # Number of insts issued each cycle
system.switch_cpus0.iq.issued_per_cycle::2     24462404     11.11%     56.40% # Number of insts issued each cycle
system.switch_cpus0.iq.issued_per_cycle::3     29259718     13.29%     69.70% # Number of insts issued each cycle
system.switch_cpus0.iq.issued_per_cycle::4     27129243     12.32%     82.02% # Number of insts issued each cycle
system.switch_cpus0.iq.issued_per_cycle::5     17344794      7.88%     89.90% # Number of insts issued each cycle
system.switch_cpus0.iq.issued_per_cycle::6     12228419      5.55%     95.45% # Number of insts issued each cycle
system.switch_cpus0.iq.issued_per_cycle::7      7208198      3.27%     98.73% # Number of insts issued each cycle
system.switch_cpus0.iq.issued_per_cycle::8      2804055      1.27%    100.00% # Number of insts issued each cycle
system.switch_cpus0.iq.issued_per_cycle::overflows            0      0.00%    100.00% # Number of insts issued each cycle
system.switch_cpus0.iq.issued_per_cycle::min_value            0                       # Number of insts issued each cycle
system.switch_cpus0.iq.issued_per_cycle::max_value            8                       # Number of insts issued each cycle
system.switch_cpus0.iq.issued_per_cycle::total    220146403                       # Number of insts issued each cycle
system.switch_cpus0.iq.rate                  2.268529                       # Inst issue rate
system.switch_cpus0.iq.vec_alu_accesses             0                       # Number of vector alu accesses
system.switch_cpus0.iq.vec_inst_queue_reads            0                       # Number of vector instruction queue reads
system.switch_cpus0.iq.vec_inst_queue_wakeup_accesses            0                       # Number of vector instruction queue wakeup accesses
system.switch_cpus0.iq.vec_inst_queue_writes            0                       # Number of vector instruction queue writes
system.switch_cpus0.memDep0.conflictingLoads     10420179                       # Number of conflicting loads.
system.switch_cpus0.memDep0.conflictingStores       629619                       # Number of conflicting stores.
system.switch_cpus0.memDep0.insertedLoads     69489176                       # Number of loads inserted to the mem dependence unit.
system.switch_cpus0.memDep0.insertedStores     37376016                       # Number of stores inserted to the mem dependence unit.
system.switch_cpus0.misc_regfile_reads      175948928                       # number of misc regfile reads
system.switch_cpus0.misc_regfile_writes             1                       # number of misc regfile writes
system.switch_cpus0.numCycles               220194227                       # number of cpu cycles simulated
system.switch_cpus0.numWorkItemsCompleted            0                       # number of work items this cpu completed
system.switch_cpus0.numWorkItemsStarted             0                       # number of work items this cpu started
system.switch_cpus0.timesIdled                    226                       # Number of times that the entire CPU went into an idle state and unscheduled itself
system.switch_cpus1.cc_regfile_reads        213990646                       # number of cc regfile reads
system.switch_cpus1.cc_regfile_writes       252654406                       # number of cc regfile writes
system.switch_cpus1.committedInsts          249997513                       # Number of Instructions Simulated
system.switch_cpus1.committedOps            362741114                       # Number of Ops (including micro ops) Simulated
system.switch_cpus1.cpi                      0.880786                       # CPI: Cycles Per Instruction
system.switch_cpus1.cpi_total                0.880786                       # CPI: Total CPI of All Threads
system.switch_cpus1.fp_regfile_reads          6381881                       # number of floating regfile reads
system.switch_cpus1.fp_regfile_writes         6349676                       # number of floating regfile writes
system.switch_cpus1.idleCycles                  47786                       # Total number of cycles that the CPU has spent unscheduled due to idling
system.switch_cpus1.iew.branchMispredicts      3375501                       # Number of branch mispredicts detected at execute
system.switch_cpus1.iew.exec_branches        39344046                       # Number of branches executed
system.switch_cpus1.iew.exec_nop                    0                       # number of nop insts executed
system.switch_cpus1.iew.exec_rate            2.240843                       # Inst execution rate
system.switch_cpus1.iew.exec_refs            85824333                       # number of memory reference insts executed
system.switch_cpus1.iew.exec_stores          26458840                       # Number of stores executed
system.switch_cpus1.iew.exec_swp                    0                       # number of swp insts executed
system.switch_cpus1.iew.iewBlockCycles       41414811                       # Number of cycles IEW is blocking
system.switch_cpus1.iew.iewDispLoadInsts     69488832                       # Number of dispatched load instructions
system.switch_cpus1.iew.iewDispNonSpecInsts            0                       # Number of dispatched non-speculative instructions
system.switch_cpus1.iew.iewDispSquashedInsts         7654                       # Number of squashed instructions skipped by dispatch
system.switch_cpus1.iew.iewDispStoreInsts     37376102                       # Number of dispatched store instructions
system.switch_cpus1.iew.iewDispatchedInsts    622571040                       # Number of instructions dispatched to IQ
system.switch_cpus1.iew.iewExecLoadInsts     59365493                       # Number of load instructions executed
system.switch_cpus1.iew.iewExecSquashedInsts      6093824                       # Number of squashed instructions skipped in execute
system.switch_cpus1.iew.iewExecutedInsts    493420759                       # Number of executed instructions
system.switch_cpus1.iew.iewIQFullEvents        135951                       # Number of times the IQ has become full, causing a stall
system.switch_cpus1.iew.iewIdleCycles               0                       # Number of cycles IEW is idle
system.switch_cpus1.iew.iewLSQFullEvents       673070                       # Number of times the LSQ has become full, causing a stall
system.switch_cpus1.iew.iewSquashCycles       3297137                       # Number of cycles IEW is squashing
system.switch_cpus1.iew.iewUnblockCycles       790910                       # Number of cycles IEW is unblocking
system.switch_cpus1.iew.memOrderViolationEvents        19537                       # Number of memory order violations
system.switch_cpus1.iew.predictedNotTakenIncorrect      1332056                       # Number of branches that were predicted not taken incorrectly
system.switch_cpus1.iew.predictedTakenIncorrect      2043445                       # Number of branches that were predicted taken incorrectly
system.switch_cpus1.iew.wb_consumers        720057546                       # num instructions consuming a value
system.switch_cpus1.iew.wb_count            488643224                       # cumulative count of insts written-back
system.switch_cpus1.iew.wb_fanout            0.543080                       # average fanout of values written-back
system.switch_cpus1.iew.wb_producers        391049152                       # num instructions producing a value
system.switch_cpus1.iew.wb_rate              2.219146                       # insts written-back per cycle
system.switch_cpus1.iew.wb_sent             492877435                       # cumulative count of insts sent to commit
system.switch_cpus1.int_regfile_reads       794315695                       # number of integer regfile reads
system.switch_cpus1.int_regfile_writes      426883056                       # number of integer regfile writes
system.switch_cpus1.ipc                      1.135350                       # IPC: Instructions Per Cycle
system.switch_cpus1.ipc_total                1.135350                       # IPC: Total IPC of All Threads
system.switch_cpus1.iq.FU_type_0::No_OpClass      3143886      0.63%      0.63% # Type of FU issued
system.switch_cpus1.iq.FU_type_0::IntAlu    398561162     79.79%     80.42% # Type of FU issued
system.switch_cpus1.iq.FU_type_0::IntMult      9295841      1.86%     82.28% # Type of FU issued
system.switch_cpus1.iq.FU_type_0::IntDiv            0      0.00%     82.28% # Type of FU issued
system.switch_cpus1.iq.FU_type_0::FloatAdd            0      0.00%     82.28% # Type of FU issued
system.switch_cpus1.iq.FU_type_0::FloatCmp            0      0.00%     82.28% # Type of FU issued
system.switch_cpus1.iq.FU_type_0::FloatCvt            0      0.00%     82.28% # Type of FU issued
system.switch_cpus1.iq.FU_type_0::FloatMult            0      0.00%     82.28% # Type of FU issued
system.switch_cpus1.iq.FU_type_0::FloatMultAcc            0      0.00%     82.28% # Type of FU issued
system.switch_cpus1.iq.FU_type_0::FloatDiv            0      0.00%     82.28% # Type of FU issued
system.switch_cpus1.iq.FU_type_0::FloatMisc            0      0.00%     82.28% # Type of FU issued
system.switch_cpus1.iq.FU_type_0::FloatSqrt            0      0.00%     82.28% # Type of FU issued
system.switch_cpus1.iq.FU_type_0::SimdAdd            0      0.00%     82.28% # Type of FU issued
system.switch_cpus1.iq.FU_type_0::SimdAddAcc            0      0.00%     82.28% # Type of FU issued
system.switch_cpus1.iq.FU_type_0::SimdAlu            0      0.00%     82.28% # Type of FU issued
system.switch_cpus1.iq.FU_type_0::SimdCmp            0      0.00%     82.28% # Type of FU issued
system.switch_cpus1.iq.FU_type_0::SimdCvt            0      0.00%     82.28% # Type of FU issued
system.switch_cpus1.iq.FU_type_0::SimdMisc            0      0.00%     82.28% # Type of FU issued
system.switch_cpus1.iq.FU_type_0::SimdMult            0      0.00%     82.28% # Type of FU issued
system.switch_cpus1.iq.FU_type_0::SimdMultAcc            0      0.00%     82.28% # Type of FU issued
system.switch_cpus1.iq.FU_type_0::SimdShift            0      0.00%     82.28% # Type of FU issued
system.switch_cpus1.iq.FU_type_0::SimdShiftAcc            0      0.00%     82.28% # Type of FU issued
system.switch_cpus1.iq.FU_type_0::SimdDiv            0      0.00%     82.28% # Type of FU issued
system.switch_cpus1.iq.FU_type_0::SimdSqrt            0      0.00%     82.28% # Type of FU issued
system.switch_cpus1.iq.FU_type_0::SimdFloatAdd            0      0.00%     82.28% # Type of FU issued
system.switch_cpus1.iq.FU_type_0::SimdFloatAlu            0      0.00%     82.28% # Type of FU issued
system.switch_cpus1.iq.FU_type_0::SimdFloatCmp            0      0.00%     82.28% # Type of FU issued
system.switch_cpus1.iq.FU_type_0::SimdFloatCvt            0      0.00%     82.28% # Type of FU issued
system.switch_cpus1.iq.FU_type_0::SimdFloatDiv            0      0.00%     82.28% # Type of FU issued
system.switch_cpus1.iq.FU_type_0::SimdFloatMisc            0      0.00%     82.28% # Type of FU issued
system.switch_cpus1.iq.FU_type_0::SimdFloatMult            0      0.00%     82.28% # Type of FU issued
system.switch_cpus1.iq.FU_type_0::SimdFloatMultAcc            0      0.00%     82.28% # Type of FU issued
system.switch_cpus1.iq.FU_type_0::SimdFloatSqrt            0      0.00%     82.28% # Type of FU issued
system.switch_cpus1.iq.FU_type_0::SimdReduceAdd            0      0.00%     82.28% # Type of FU issued
system.switch_cpus1.iq.FU_type_0::SimdReduceAlu            0      0.00%     82.28% # Type of FU issued
system.switch_cpus1.iq.FU_type_0::SimdReduceCmp            0      0.00%     82.28% # Type of FU issued
system.switch_cpus1.iq.FU_type_0::SimdFloatReduceAdd            0      0.00%     82.28% # Type of FU issued
system.switch_cpus1.iq.FU_type_0::SimdFloatReduceCmp            0      0.00%     82.28% # Type of FU issued
[...]
system.switch_cpus3.commit.numCommittedDist::0     74144548     39.66%     39.66% # Number of insts commited each cycle
system.switch_cpus3.commit.numCommittedDist::1     43587586     23.31%     62.97% # Number of insts commited each cycle
system.switch_cpus3.commit.numCommittedDist::2      9696766      5.19%     68.15% # Number of insts commited each cycle
system.switch_cpus3.commit.numCommittedDist::3     24776971     13.25%     81.41% # Number of insts commited each cycle
system.switch_cpus3.commit.numCommittedDist::4      8351485      4.47%     85.87% # Number of insts commited each cycle
system.switch_cpus3.commit.numCommittedDist::5      4534012      2.42%     88.30% # Number of insts commited each cycle
system.switch_cpus3.commit.numCommittedDist::6      2082262      1.11%     89.41% # Number of insts commited each cycle
system.switch_cpus3.commit.numCommittedDist::7      1746823      0.93%     90.35% # Number of insts commited each cycle
system.switch_cpus3.commit.numCommittedDist::8     18049226      9.65%    100.00% # Number of insts commited each cycle
system.switch_cpus3.commit.numCommittedDist::overflows            0      0.00%    100.00% # Number of insts commited each cycle
system.switch_cpus3.commit.numCommittedDist::min_value            0                       # Number of insts commited each cycle
system.switch_cpus3.commit.numCommittedDist::max_value            8                       # Number of insts commited each cycle
system.switch_cpus3.commit.numCommittedDist::total    186969679                       # Number of insts commited each cycle
system.switch_cpus3.commit.instsCommitted    249832877                       # Number of instructions committed
system.switch_cpus3.commit.opsCommitted     362503172                       # Number of ops (including micro ops) committed
system.switch_cpus3.commit.memRefs           52952108                       # Number of memory references committed
system.switch_cpus3.commit.loads             36975411                       # Number of loads committed
system.switch_cpus3.commit.amos                     0                       # Number of atomic instructions committed
system.switch_cpus3.commit.membars                  0                       # Number of memory barriers committed
system.switch_cpus3.commit.branches          29658048                       # Number of branches committed
system.switch_cpus3.commit.vector                   0                       # Number of committed Vector instructions.
system.switch_cpus3.commit.floating           1294950                       # Number of committed floating point instructions.
system.switch_cpus3.commit.integer          362501776                       # Number of committed integer instructions.
system.switch_cpus3.commit.functionCalls        66790                       # Number of function calls committed.
system.switch_cpus3.commit.committedInstType_0::No_OpClass          668      0.00%      0.00% # Class of committed instruction
system.switch_cpus3.commit.committedInstType_0::IntAlu    300584732     82.92%     82.92% # Class of committed instruction
system.switch_cpus3.commit.committedInstType_0::IntMult      8965664      2.47%     85.39% # Class of committed instruction
system.switch_cpus3.commit.committedInstType_0::IntDiv            0      0.00%     85.39% # Class of committed instruction
system.switch_cpus3.commit.committedInstType_0::FloatAdd            0      0.00%     85.39% # Class of committed instruction
system.switch_cpus3.commit.committedInstType_0::FloatCmp            0      0.00%     85.39% # Class of committed instruction
system.switch_cpus3.commit.committedInstType_0::FloatCvt            0      0.00%     85.39% # Class of committed instruction
system.switch_cpus3.commit.committedInstType_0::FloatMult            0      0.00%     85.39% # Class of committed instruction
system.switch_cpus3.commit.committedInstType_0::FloatMultAcc            0      0.00%     85.39% # Class of committed instruction
system.switch_cpus3.commit.committedInstType_0::FloatDiv            0      0.00%     85.39% # Class of committed instruction
system.switch_cpus3.commit.committedInstType_0::FloatMisc            0      0.00%     85.39% # Class of committed instruction
system.switch_cpus3.commit.committedInstType_0::FloatSqrt            0      0.00%     85.39% # Class of committed instruction
system.switch_cpus3.commit.committedInstType_0::SimdAdd            0      0.00%     85.39% # Class of committed instruction
system.switch_cpus3.commit.committedInstType_0::SimdAddAcc            0      0.00%     85.39% # Class of committed instruction
system.switch_cpus3.commit.committedInstType_0::SimdAlu            0      0.00%     85.39% # Class of committed instruction
system.switch_cpus3.commit.committedInstType_0::SimdCmp            0      0.00%     85.39% # Class of committed instruction
system.switch_cpus3.commit.committedInstType_0::SimdCvt            0      0.00%     85.39% # Class of committed instruction
system.switch_cpus3.commit.committedInstType_0::SimdMisc            0      0.00%     85.39% # Class of committed instruction
system.switch_cpus3.commit.committedInstType_0::SimdMult            0      0.00%     85.39% # Class of committed instruction
system.switch_cpus3.commit.committedInstType_0::SimdMultAcc            0      0.00%     85.39% # Class of committed instruction
system.switch_cpus3.commit.committedInstType_0::SimdShift            0      0.00%     85.39% # Class of committed instruction
system.switch_cpus3.commit.committedInstType_0::SimdShiftAcc            0      0.00%     85.39% # Class of committed instruction
system.switch_cpus3.commit.committedInstType_0::SimdDiv            0      0.00%     85.39% # Class of committed instruction
system.switch_cpus3.commit.committedInstType_0::SimdSqrt            0      0.00%     85.39% # Class of committed instruction
system.switch_cpus3.commit.committedInstType_0::SimdFloatAdd            0      0.00%     85.39% # Class of committed instruction
system.switch_cpus3.commit.committedInstType_0::SimdFloatAlu            0      0.00%     85.39% # Class of committed instruction
system.switch_cpus3.commit.committedInstType_0::SimdFloatCmp            0      0.00%     85.39% # Class of committed instruction
system.switch_cpus3.commit.committedInstType_0::SimdFloatCvt            0      0.00%     85.39% # Class of committed instruction
system.switch_cpus3.commit.committedInstType_0::SimdFloatDiv            0      0.00%     85.39% # Class of committed instruction
system.switch_cpus3.commit.committedInstType_0::SimdFloatMisc            0      0.00%     85.39% # Class of committed instruction
system.switch_cpus3.commit.committedInstType_0::SimdFloatMult            0      0.00%     85.39% # Class of committed instruction
system.switch_cpus3.commit.committedInstType_0::SimdFloatMultAcc            0      0.00%     85.39% # Class of committed instruction
system.switch_cpus3.commit.committedInstType_0::SimdFloatSqrt            0      0.00%     85.39% # Class of committed instruction
system.switch_cpus3.commit.committedInstType_0::SimdReduceAdd            0      0.00%     85.39% # Class of committed instruction
system.switch_cpus3.commit.committedInstType_0::SimdReduceAlu            0      0.00%     85.39% # Class of committed instruction
system.switch_cpus3.commit.committedInstType_0::SimdReduceCmp            0      0.00%     85.39% # Class of committed instruction
system.switch_cpus3.commit.committedInstType_0::SimdFloatReduceAdd            0      0.00%     85.39% # Class of committed instruction
system.switch_cpus3.commit.committedInstType_0::SimdFloatReduceCmp            0      0.00%     85.39% # Class of committed instruction
system.switch_cpus3.commit.committedInstType_0::SimdAes            0      0.00%     85.39% # Class of committed instruction
system.switch_cpus3.commit.committedInstType_0::SimdAesMix            0      0.00%     85.39% # Class of committed instruction
system.switch_cpus3.commit.committedInstType_0::SimdSha1Hash            0      0.00%     85.39% # Class of committed instruction
system.switch_cpus3.commit.committedInstType_0::SimdSha1Hash2            0      0.00%     85.39% # Class of committed instruction
system.switch_cpus3.commit.committedInstType_0::SimdSha256Hash            0      0.00%     85.39% # Class of committed instruction
system.switch_cpus3.commit.committedInstType_0::SimdSha256Hash2            0      0.00%     85.39% # Class of committed instruction
system.switch_cpus3.commit.committedInstType_0::SimdShaSigma2            0      0.00%     85.39% # Class of committed instruction
system.switch_cpus3.commit.committedInstType_0::SimdShaSigma3            0      0.00%     85.39% # Class of committed instruction
system.switch_cpus3.commit.committedInstType_0::SimdPredAlu            0      0.00%     85.39% # Class of committed instruction
system.switch_cpus3.commit.committedInstType_0::MemRead     36327945     10.02%     95.41% # Class of committed instruction
system.switch_cpus3.commit.committedInstType_0::MemWrite     15329213      4.23%     99.64% # Class of committed instruction
system.switch_cpus3.commit.committedInstType_0::FloatMemRead       647466      0.18%     99.82% # Class of committed instruction
system.switch_cpus3.commit.committedInstType_0::FloatMemWrite       647484      0.18%    100.00% # Class of committed instruction
system.switch_cpus3.commit.committedInstType_0::IprAccess            0      0.00%    100.00% # Class of committed instruction
system.switch_cpus3.commit.committedInstType_0::InstPrefetch            0      0.00%    100.00% # Class of committed instruction
system.switch_cpus3.commit.committedInstType_0::total    362503172                       # Class of committed instruction
system.switch_cpus3.commit.commitEligibleSamples     18049226                       # number cycles where commit BW limit reached
system.switch_cpus3.decode.idleCycles        18832733                       # Number of cycles decode is idle
system.switch_cpus3.decode.blockedCycles    105586417                       # Number of cycles decode is blocked
system.switch_cpus3.decode.runCycles         62068802                       # Number of cycles decode is running
system.switch_cpus3.decode.unblockCycles     30360344                       # Number of cycles decode is unblocking
system.switch_cpus3.decode.squashCycles       3295079                       # Number of cycles decode is squashing
system.switch_cpus3.decode.branchResolved     37017765                       # Number of times decode resolved a  branch
system.switch_cpus3.decode.branchMispred         2067                       # Number of times decode detected a branch misprediction
system.switch_cpus3.decode.decodedInsts     668302035                       # Number of instructions handled by decode
system.switch_cpus3.decode.squashedInsts         5124                       # Number of squashed instructions handled by decode
system.switch_cpus3.dtb.rdAccesses           59331976                       # TLB accesses on read requests
system.switch_cpus3.dtb.wrAccesses           26465699                       # TLB accesses on write requests
system.switch_cpus3.dtb.rdMisses                37007                       # TLB misses on read requests
system.switch_cpus3.dtb.wrMisses                 1761                       # TLB misses on write requests
system.switch_cpus3.dtb.walker.power_state.pwrStateResidencyTicks::UNDEFINED 15023770806717                       # Cumulative time (in ticks) in various power states
system.switch_cpus3.fetch.icacheStallCycles      2983423                       # Number of cycles fetch is stalled on an Icache miss
system.switch_cpus3.fetch.insts             509466474                       # Number of instructions fetch has processed
system.switch_cpus3.fetch.branches           59471046                       # Number of branches that fetch encountered
system.switch_cpus3.fetch.predictedBranches     41125181                       # Number of branches that fetch has predicted taken
system.switch_cpus3.fetch.cycles            213862141                       # Number of cycles fetch has run and was not squashing or blocked
system.switch_cpus3.fetch.squashCycles        6594258                       # Number of cycles fetch has spent squashing
system.switch_cpus3.fetch.miscStallCycles           72                       # Number of cycles fetch has spent waiting on interrupts,or bad addresses, or out of MSHRs
system.switch_cpus3.fetch.pendingTrapStallCycles          616                       # Number of stall cycles due to pending traps
system.switch_cpus3.fetch.cacheLines         68125978                       # Number of cache lines fetched
system.switch_cpus3.fetch.icacheSquashes          247                       # Number of outstanding Icache misses that were squashed
system.switch_cpus3.fetch.nisnDist::samples    220143381                       # Number of instructions fetched each cycle (Total)
system.switch_cpus3.fetch.nisnDist::mean     3.412807                       # Number of instructions fetched each cycle (Total)
system.switch_cpus3.fetch.nisnDist::stdev     3.356482                       # Number of instructions fetched each cycle (Total)
system.switch_cpus3.fetch.nisnDist::underflows            0      0.00%      0.00% # Number of instructions fetched each cycle (Total)
system.switch_cpus3.fetch.nisnDist::0        83396909     37.88%     37.88% # Number of instructions fetched each cycle (Total)
system.switch_cpus3.fetch.nisnDist::1        12433343      5.65%     43.53% # Number of instructions fetched each cycle (Total)
system.switch_cpus3.fetch.nisnDist::2        14790813      6.72%     50.25% # Number of instructions fetched each cycle (Total)
system.switch_cpus3.fetch.nisnDist::3        11134751      5.06%     55.31% # Number of instructions fetched each cycle (Total)
system.switch_cpus3.fetch.nisnDist::4        11826691      5.37%     60.68% # Number of instructions fetched each cycle (Total)
system.switch_cpus3.fetch.nisnDist::5        14179843      6.44%     67.12% # Number of instructions fetched each cycle (Total)
system.switch_cpus3.fetch.nisnDist::6         8387595      3.81%     70.93% # Number of instructions fetched each cycle (Total)
system.switch_cpus3.fetch.nisnDist::7         4591450      2.09%     73.02% # Number of instructions fetched each cycle (Total)
system.switch_cpus3.fetch.nisnDist::8        59401986     26.98%    100.00% # Number of instructions fetched each cycle (Total)
system.switch_cpus3.fetch.nisnDist::overflows            0      0.00%    100.00% # Number of instructions fetched each cycle (Total)
system.switch_cpus3.fetch.nisnDist::min_value            0                       # Number of instructions fetched each cycle (Total)
system.switch_cpus3.fetch.nisnDist::max_value            8                       # Number of instructions fetched each cycle (Total)
system.switch_cpus3.fetch.nisnDist::total    220143381                       # Number of instructions fetched each cycle (Total)
system.switch_cpus3.fetch.branchRate         0.270084                       # Number of branch fetches per cycle
system.switch_cpus3.fetch.rate               2.313714                       # Number of inst fetches per cycle
system.switch_cpus3.itb.rdAccesses                  0                       # TLB accesses on read requests
system.switch_cpus3.itb.wrAccesses           68126088                       # TLB accesses on write requests
system.switch_cpus3.itb.rdMisses                    0                       # TLB misses on read requests
system.switch_cpus3.itb.wrMisses                  131                       # TLB misses on write requests
system.switch_cpus3.itb.walker.power_state.pwrStateResidencyTicks::UNDEFINED 15023770806717                       # Cumulative time (in ticks) in various power states
system.switch_cpus3.lsq0.forwLoads            7052794                       # Number of loads that had data forwarded from stores
system.switch_cpus3.lsq0.squashedLoads       32473096                       # Number of loads squashed
system.switch_cpus3.lsq0.ignoredResponses         7064                       # Number of memory responses ignored because the instruction is squashed
system.switch_cpus3.lsq0.memOrderViolation        19475                       # Number of memory ordering violations
system.switch_cpus3.lsq0.squashedStores      21380050                       # Number of stores squashed
system.switch_cpus3.lsq0.rescheduledLoads            4                       # Number of loads that were rescheduled
system.switch_cpus3.lsq0.blockedByCache           717                       # Number of times an access to memory failed due to the cache being blocked
system.switch_cpus3.power_state.pwrStateResidencyTicks::OFF  73324687914                       # Cumulative time (in ticks) in various power states
system.switch_cpus3.rename.squashCycles       3295079                       # Number of cycles rename is squashing
system.switch_cpus3.rename.idleCycles        30867603                       # Number of cycles rename is idle
system.switch_cpus3.rename.blockCycles       48156481                       # Number of cycles rename is blocking
system.switch_cpus3.rename.serializeStallCycles            0                       # count of cycles rename stalledfor serializing inst
system.switch_cpus3.rename.runCycles         79850053                       # Number of cycles rename is running
system.switch_cpus3.rename.unblockCycles     57974159                       # Number of cycles rename is unblocking
system.switch_cpus3.rename.renamedInsts     649725913                       # Number of instructions processed by rename
system.switch_cpus3.rename.ROBFullEvents        42319                       # Number of times rename has blocked due to ROB full
system.switch_cpus3.rename.IQFullEvents      40953908                       # Number of times rename has blocked due to IQ full
system.switch_cpus3.rename.LQFullEvents         41564                       # Number of times rename has blocked due to LQ full
system.switch_cpus3.rename.SQFullEvents      11673338                       # Number of times rename has blocked due to SQ full
system.switch_cpus3.rename.renamedOperands    931998140                       # Number of destination operands rename has renamed
system.switch_cpus3.rename.lookups         1667120949                       # Number of register rename lookups that rename has made
system.switch_cpus3.rename.intLookups      1129909488                       # Number of integer rename lookups
system.switch_cpus3.rename.fpLookups          6603425                       # Number of floating rename lookups
system.switch_cpus3.rename.committedMaps    534078491                       # Number of HB maps that are committed
system.switch_cpus3.rename.undoneMaps       397919510                       # Number of HB maps that are undone due to squashing
system.switch_cpus3.rename.serializing              0                       # count of serializing insts renamed
system.switch_cpus3.rename.tempSerializing            0                       # count of temporary serializing insts renamed
system.switch_cpus3.rename.skidInsts        123957489                       # count of insts added to the skid buffer
system.switch_cpus3.rob.reads               781236176                       # The number of ROB reads
system.switch_cpus3.rob.writes             1264698433                       # The number of ROB writes
system.switch_cpus3.thread0.numInsts        249832877                       # Number of Instructions committed
system.switch_cpus3.thread0.numOps          362503172                       # Number of Ops committed
system.switch_cpus3.thread0.numMemRefs              0                       # Number of Memory References
system.voltage_domain.voltage                       1                       # Voltage in Volts

---------- End Simulation Statistics   ----------
