Command line:
./runscript_pride.sh mix1 RFM1.BR1.4C 4 2017 --rh_defense --rh_mitigation=RFM --rh_rfm_per_trefi=1 --rh_rfm_blast_radius=1 --rh_rfm_maxacts_per_trefi=79
Global frequency set at 1000000000000 ticks per second
RFM details - rfm_act_threshold: 79, blast_radius: 1, delay_per_rfm: 175000 ps. sample_rate: 0.012500
RH Defense config: RFM, Bus Delay: 0, rfms_per_trefi: 1, rfm_act_threshold: 79, blast_radius: 1,rfm_delay_per_act: 45000 ps.
DRAM config: RowsPerBank: 65536, BanksPerRank: 32, RanksPerChannel: 1
warn: Sockets disabled, not accepting gdb connections
warn: CoherentXBar system.cpu0.mmucache.mmubus has no snooping ports attached!
warn: CoherentXBar system.cpu1.mmucache.mmubus has no snooping ports attached!
warn: CoherentXBar system.cpu2.mmucache.mmubus has no snooping ports attached!
warn: CoherentXBar system.cpu3.mmucache.mmubus has no snooping ports attached!
warn: Checkpoints for file descriptors currently do not work.
warn: Checkpoints for file descriptors currently do not work.
warn: Checkpoints for file descriptors currently do not work.
warn: Checkpoints for file descriptors currently do not work.
gem5 Simulator System.  http://gem5.org
gem5 is copyrighted software; use the --copyright option for details.

gem5 version 20.1.0.5
gem5 compiled Jul 12 2024 12:42:38
gem5 started Jul 17 2024 13:57:01
gem5 executing on a07dda8b130c, pid 89776
command line: /home/user/PrIDE/performance/gem5/build/X86/gem5.opt --outdir=/home/user/PrIDE/performance/gem5/stats/pride_multiprogram_16GBmem_250Mn.SPEC2017.C4/RFM1.BR1.4C/mix1 /home/user/PrIDE/performance/gem5/configs/example/se_rq_spec_config_multicore.py --redirects /lib64=/home/utils/gcc-6.2.0/lib64 --benchmark=mix1 --benchmark_stdout=/home/user/PrIDE/performance/gem5/stats/pride_multiprogram_16GBmem_250Mn.SPEC2017.C4/RFM1.BR1.4C/mix1/mix1.out --benchmark_stderr=/home/user/PrIDE/performance/gem5/stats/pride_multiprogram_16GBmem_250Mn.SPEC2017.C4/RFM1.BR1.4C/mix1/mix1.err --spec-version=2017 --rh_defense --rh_mitigation=RFM --rh_rfm_per_trefi=1 --rh_rfm_blast_radius=1 --rh_rfm_maxacts_per_trefi=79 --num-cpus=4 --mem-size=16GB --mem-type=DDR5_2400_32x4 --mem-ranks=1 --checkpoint-dir=/home/user/PrIDE/performance/gem5/cpts/multiprogram_16GBmem_25Bn.SPEC2017.C4/mix1-1-ref-x86 --checkpoint-restore=25000000000 --at-instruction --cpu-type DerivO3CPU --caches --l2cache --l1d_size=32kB --l1i_size=32kB --l2_size=256kB --l1d_assoc=8 --l1i_assoc=8 --l2_assoc=16 --maxinsts=250000000 --prog-interval=300Hz

info: Standard input is not a terminal, disabling listeners.
Benchmark- 0   leela
Selected benchmark
--> leela
CMD: ['/opt/spec2017/benchspec/CPU/541.leela_r/run/run_base_refrate_gem5_se-m64.0000/leela_r_base.gem5_se-m64', '/opt/spec2017/benchspec/CPU/541.leela_r/run/run_base_refrate_gem5_se-m64.0000/ref.sgf']
CWD: /opt/spec2017/benchspec/CPU/541.leela_r/run/run_base_refrate_gem5_se-m64.0000/
Process stdout file: /home/user/PrIDE/performance/gem5/stats/pride_multiprogram_16GBmem_250Mn.SPEC2017.C4/RFM1.BR1.4C/mix1/mix1.out_0
Process stderr file: /home/user/PrIDE/performance/gem5/stats/pride_multiprogram_16GBmem_250Mn.SPEC2017.C4/RFM1.BR1.4C/mix1/mix1.err_0
Benchmark- 1   exchange2
Selected benchmark
--> exchange2
CMD: ['/opt/spec2017/benchspec/CPU/548.exchange2_r/run/run_base_refrate_gem5_se-m64.0000/exchange2_r_base.gem5_se-m64', '6']
CWD: /opt/spec2017/benchspec/CPU/548.exchange2_r/run/run_base_refrate_gem5_se-m64.0000/
Process stdout file: /home/user/PrIDE/performance/gem5/stats/pride_multiprogram_16GBmem_250Mn.SPEC2017.C4/RFM1.BR1.4C/mix1/mix1.out_1
Process stderr file: /home/user/PrIDE/performance/gem5/stats/pride_multiprogram_16GBmem_250Mn.SPEC2017.C4/RFM1.BR1.4C/mix1/mix1.err_1
Benchmark- 2   bwaves
Selected benchmark
--> bwaves
CMD: ['/opt/spec2017/benchspec/CPU/503.bwaves_r/run/run_base_refrate_gem5_se-m64.0000/bwaves_r_base.gem5_se-m64', '/opt/spec2017/benchspec/CPU/503.bwaves_r/run/run_base_refrate_gem5_se-m64.0000/bwaves_1']
CWD: /opt/spec2017/benchspec/CPU/503.bwaves_r/run/run_base_refrate_gem5_se-m64.0000/
Process stdout file: /home/user/PrIDE/performance/gem5/stats/pride_multiprogram_16GBmem_250Mn.SPEC2017.C4/RFM1.BR1.4C/mix1/mix1.out_2
Process stderr file: /home/user/PrIDE/performance/gem5/stats/pride_multiprogram_16GBmem_250Mn.SPEC2017.C4/RFM1.BR1.4C/mix1/mix1.err_2
Benchmark- 3   roms
Selected benchmark
--> roms
CMD: ['/opt/spec2017/benchspec/CPU/554.roms_r/run/run_base_refrate_gem5_se-m64.0000/roms_r_base.gem5_se-m64']
CWD: /opt/spec2017/benchspec/CPU/554.roms_r/run/run_base_refrate_gem5_se-m64.0000/
Process stdout file: /home/user/PrIDE/performance/gem5/stats/pride_multiprogram_16GBmem_250Mn.SPEC2017.C4/RFM1.BR1.4C/mix1/mix1.out_3
Process stderr file: /home/user/PrIDE/performance/gem5/stats/pride_multiprogram_16GBmem_250Mn.SPEC2017.C4/RFM1.BR1.4C/mix1/mix1.err_3
Workload-0: 
['/opt/spec2017/benchspec/CPU/541.leela_r/run/run_base_refrate_gem5_se-m64.0000/leela_r_base.gem5_se-m64', '/opt/spec2017/benchspec/CPU/541.leela_r/run/run_base_refrate_gem5_se-m64.0000/ref.sgf']
Workload-1: 
['/opt/spec2017/benchspec/CPU/548.exchange2_r/run/run_base_refrate_gem5_se-m64.0000/exchange2_r_base.gem5_se-m64', '6']
Workload-2: 
['/opt/spec2017/benchspec/CPU/503.bwaves_r/run/run_base_refrate_gem5_se-m64.0000/bwaves_r_base.gem5_se-m64', '/opt/spec2017/benchspec/CPU/503.bwaves_r/run/run_base_refrate_gem5_se-m64.0000/bwaves_1']
Workload-3: 
['/opt/spec2017/benchspec/CPU/554.roms_r/run/run_base_refrate_gem5_se-m64.0000/roms_r_base.gem5_se-m64']
defense_enable:  True  detector:  MG  mitigation:  RFM  threshold:  800
mg_entries:  1700
rfm_maxacts_per_trefi:  79 rfm_per_trefi:  1 rfm_blast_radius:  1
Switch at curTick count:10000
warn: membus.master is deprecated. `master` is now called `mem_side_ports`
warn: No dot file generated. Please install pydot to generate the dot file and pdf.
info: Entering event queue @ 15651257077332.  Starting simulation...
info: Entering event queue @ 15651257087332.  Starting simulation...
warn: PowerState: Already in the requested power state, request ignored
Switched CPUS @ tick 15651257087332
switching cpus
**** REAL SIMULATION ****
info: Entering event queue @ 15651257087655.  Starting simulation...
15654590410665: Event_285: system.switch_cpus3 progress event, total committed:9145259, progress insts committed: 9145259, IPC: 0.913611
15654590410665: Event_284: system.switch_cpus2 progress event, total committed:39524708, progress insts committed: 39524708, IPC: 03.94852
15654590410665: Event_283: system.switch_cpus1 progress event, total committed:33093434, progress insts committed: 33093434, IPC: 03.30603
15654590410665: Event_282: system.switch_cpus0 progress event, total committed:18536259, progress insts committed: 18536259, IPC: 01.85177
15657923743998: Event_282: system.switch_cpus0 progress event, total committed:38483983, progress insts committed: 19947724, IPC: 01.99278
15657923743998: Event_283: system.switch_cpus1 progress event, total committed:66731280, progress insts committed: 33637846, IPC: 03.36042
15657923743998: Event_284: system.switch_cpus2 progress event, total committed:79061977, progress insts committed: 39537269, IPC: 03.94977
15657923743998: Event_285: system.switch_cpus3 progress event, total committed:18427954, progress insts committed: 9282695, IPC: 0.927341
15661257077331: Event_285: system.switch_cpus3 progress event, total committed:27770917, progress insts committed: 9342963, IPC: 0.933362
15661257077331: Event_284: system.switch_cpus2 progress event, total committed:119007272, progress insts committed: 39945295, IPC: 03.99053
15661257077331: Event_283: system.switch_cpus1 progress event, total committed:101482875, progress insts committed: 34751595, IPC: 03.47168
15661257077331: Event_282: system.switch_cpus0 progress event, total committed:58392003, progress insts committed: 19908020, IPC: 01.98881
15664590410664: Event_282: system.switch_cpus0 progress event, total committed:78165442, progress insts committed: 19773439, IPC: 01.97537
15664590410664: Event_283: system.switch_cpus1 progress event, total committed:137070580, progress insts committed: 35587705, IPC: 03.55521
15664590410664: Event_284: system.switch_cpus2 progress event, total committed:156546272, progress insts committed: 37539000, IPC: 03.75015
15664590410664: Event_285: system.switch_cpus3 progress event, total committed:38145309, progress insts committed: 10374392, IPC: 001.0364
15667923743997: Event_285: system.switch_cpus3 progress event, total committed:47201525, progress insts committed: 9056216, IPC: 0.904716
15667923743997: Event_284: system.switch_cpus2 progress event, total committed:187497007, progress insts committed: 30950735, IPC: 03.09198
15667923743997: Event_283: system.switch_cpus1 progress event, total committed:174370382, progress insts committed: 37299802, IPC: 03.72625
15667923743997: Event_282: system.switch_cpus0 progress event, total committed:97766982, progress insts committed: 19601540, IPC: 01.95819
15671257077330: Event_282: system.switch_cpus0 progress event, total committed:117557686, progress insts committed: 19790704, IPC: 01.97709
15671257077330: Event_283: system.switch_cpus1 progress event, total committed:210895483, progress insts committed: 36525101, IPC: 03.64886
15671257077330: Event_284: system.switch_cpus2 progress event, total committed:229048419, progress insts committed: 41551412, IPC: 04.15099
15671257077330: Event_285: system.switch_cpus3 progress event, total committed:60230404, progress insts committed: 13028879, IPC: 01.30159
15674590410663: Event_285: system.switch_cpus3 progress event, total committed:86822365, progress insts committed: 26591961, IPC: 02.65654
15674590410663: Event_284: system.switch_cpus2 progress event, total committed:267867833, progress insts committed: 38819414, IPC: 03.87806
15674590410663: Event_283: system.switch_cpus1 progress event, total committed:245422631, progress insts committed: 34527148, IPC: 03.44926
15674590410663: Event_282: system.switch_cpus0 progress event, total committed:137362645, progress insts committed: 19804959, IPC: 01.97852
15677923743996: Event_282: system.switch_cpus0 progress event, total committed:157354658, progress insts committed: 19992013, IPC: 001.9972
15677923743996: Event_283: system.switch_cpus1 progress event, total committed:281732870, progress insts committed: 36310239, IPC: 03.62739
15677923743996: Event_284: system.switch_cpus2 progress event, total committed:308211304, progress insts committed: 40343471, IPC: 04.03031
15677923743996: Event_285: system.switch_cpus3 progress event, total committed:113411664, progress insts committed: 26589299, IPC: 02.65627
15681257077329: Event_285: system.switch_cpus3 progress event, total committed:139937538, progress insts committed: 26525874, IPC: 02.64993
15681257077329: Event_284: system.switch_cpus2 progress event, total committed:348568597, progress insts committed: 40357293, IPC: 04.03169
15681257077329: Event_283: system.switch_cpus1 progress event, total committed:317721975, progress insts committed: 35989105, IPC: 03.59531
15681257077329: Event_282: system.switch_cpus0 progress event, total committed:177319399, progress insts committed: 19964741, IPC: 01.99448
15684590410662: Event_282: system.switch_cpus0 progress event, total committed:197363565, progress insts committed: 20044166, IPC: 02.00241
15684590410662: Event_283: system.switch_cpus1 progress event, total committed:352487902, progress insts committed: 34765927, IPC: 03.47312
15684590410662: Event_284: system.switch_cpus2 progress event, total committed:389104205, progress insts committed: 40535608, IPC: 04.04951
15684590410662: Event_285: system.switch_cpus3 progress event, total committed:165137780, progress insts committed: 25200242, IPC: 002.5175
15687923743995: Event_285: system.switch_cpus3 progress event, total committed:189015046, progress insts committed: 23877266, IPC: 02.38534
15687923743995: Event_284: system.switch_cpus2 progress event, total committed:428148604, progress insts committed: 39044399, IPC: 03.90054
15687923743995: Event_283: system.switch_cpus1 progress event, total committed:388794135, progress insts committed: 36306233, IPC: 03.62699
15687923743995: Event_282: system.switch_cpus0 progress event, total committed:217337663, progress insts committed: 19974098, IPC: 01.99541
Exiting @ tick 15691061116782 because a thread reached the max instruction count
