
---------- Begin Simulation Statistics ----------
final_tick                               15691061116782                       # Number of ticks from beginning of simulation (restored from checkpoints and never reset)
host_inst_rate                                 122708                       # Simulator instruction rate (inst/s)
host_mem_usage                               17332144                       # Number of bytes of host memory used
host_op_rate                                   227664                       # Simulator op (including micro ops) rate (op/s)
host_seconds                                  5872.29                       # Real time elapsed on the host
host_tick_rate                                6778278                       # Simulator tick rate (ticks/s)
sim_freq                                 1000000000000                       # Frequency of simulated ticks
sim_insts                                   720574518                       # Number of instructions simulated
sim_ops                                    1336911710                       # Number of ops (including micro ops) simulated
sim_seconds                                  0.039804                       # Number of seconds simulated
sim_ticks                                 39804039450                       # Number of ticks simulated
system.cpu0.Branches                                2                       # Number of branches fetched
system.cpu0.committedInsts                         14                       # Number of instructions committed
system.cpu0.committedOps                           24                       # Number of ops (including micro ops) committed
system.cpu0.idle_fraction                           0                       # Percentage of idle cycles
system.cpu0.l2bus.snoop_filter.hit_multi_requests          122                       # Number of requests hitting in the snoop filter with multiple (>1) holders of the requested data.
system.cpu0.l2bus.snoop_filter.hit_multi_snoops            0                       # Number of snoops hitting in the snoop filter with multiple (>1) holders of the requested data.
system.cpu0.l2bus.snoop_filter.hit_single_requests       481552                       # Number of requests hitting in the snoop filter with a single holder of the requested data.
system.cpu0.l2bus.snoop_filter.hit_single_snoops          480                       # Number of snoops hitting in the snoop filter with a single holder of the requested data.
system.cpu0.l2bus.snoop_filter.tot_requests       963968                       # Total number of requests made to the snoop filter.
system.cpu0.l2bus.snoop_filter.tot_snoops          480                       # Total number of snoops made to the snoop filter.
system.cpu0.mmucache.mmubus.snoop_filter.hit_multi_requests            0                       # Number of requests hitting in the snoop filter with multiple (>1) holders of the requested data.
system.cpu0.mmucache.mmubus.snoop_filter.hit_multi_snoops            0                       # Number of snoops hitting in the snoop filter with multiple (>1) holders of the requested data.
system.cpu0.mmucache.mmubus.snoop_filter.hit_single_requests            0                       # Number of requests hitting in the snoop filter with a single holder of the requested data.
system.cpu0.mmucache.mmubus.snoop_filter.hit_single_snoops            0                       # Number of snoops hitting in the snoop filter with a single holder of the requested data.
system.cpu0.mmucache.mmubus.snoop_filter.tot_requests            0                       # Total number of requests made to the snoop filter.
system.cpu0.mmucache.mmubus.snoop_filter.tot_snoops            0                       # Total number of snoops made to the snoop filter.
system.cpu0.not_idle_fraction                       1                       # Percentage of non-idle cycles
system.cpu0.numCycles                              30                       # number of cpu cycles simulated
system.cpu0.numWorkItemsCompleted                   0                       # number of work items this cpu completed
system.cpu0.numWorkItemsStarted                     0                       # number of work items this cpu started
system.cpu0.num_busy_cycles                        30                       # Number of busy cycles
system.cpu0.num_cc_register_reads                   9                       # number of times the CC registers were read
system.cpu0.num_cc_register_writes                 11                       # number of times the CC registers were written
system.cpu0.num_conditional_control_insts            1                       # number of instructions that are conditional controls
system.cpu0.num_fp_alu_accesses                     0                       # Number of float alu accesses
system.cpu0.num_fp_insts                            0                       # number of float instructions
system.cpu0.num_fp_register_reads                   0                       # number of times the floating registers were read
system.cpu0.num_fp_register_writes                  0                       # number of times the floating registers were written
system.cpu0.num_func_calls                          1                       # number of times a function call or return occured
system.cpu0.num_idle_cycles                         0                       # Number of idle cycles
system.cpu0.num_int_alu_accesses                   24                       # Number of integer alu accesses
system.cpu0.num_int_insts                          24                       # number of integer instructions
system.cpu0.num_int_register_reads                 49                       # number of times the integer registers were read
system.cpu0.num_int_register_writes                23                       # number of times the integer registers were written
system.cpu0.num_load_insts                          6                       # Number of load instructions
system.cpu0.num_mem_refs                            6                       # number of memory refs
system.cpu0.num_store_insts                         0                       # Number of store instructions
system.cpu0.num_vec_alu_accesses                    0                       # Number of vector alu accesses
system.cpu0.num_vec_insts                           0                       # number of vector instructions
system.cpu0.num_vec_register_reads                  0                       # number of times the vector registers were read
system.cpu0.num_vec_register_writes                 0                       # number of times the vector registers were written
system.cpu0.op_class::No_OpClass                    0      0.00%      0.00% # Class of executed instruction
system.cpu0.op_class::IntAlu                       17     70.83%     70.83% # Class of executed instruction
system.cpu0.op_class::IntMult                       1      4.17%     75.00% # Class of executed instruction
system.cpu0.op_class::IntDiv                        0      0.00%     75.00% # Class of executed instruction
system.cpu0.op_class::FloatAdd                      0      0.00%     75.00% # Class of executed instruction
system.cpu0.op_class::FloatCmp                      0      0.00%     75.00% # Class of executed instruction
system.cpu0.op_class::FloatCvt                      0      0.00%     75.00% # Class of executed instruction
system.cpu0.op_class::FloatMult                     0      0.00%     75.00% # Class of executed instruction
system.cpu0.op_class::FloatMultAcc                  0      0.00%     75.00% # Class of executed instruction
system.cpu0.op_class::FloatDiv                      0      0.00%     75.00% # Class of executed instruction
system.cpu0.op_class::FloatMisc                     0      0.00%     75.00% # Class of executed instruction
system.cpu0.op_class::FloatSqrt                     0      0.00%     75.00% # Class of executed instruction
system.cpu0.op_class::SimdAdd                       0      0.00%     75.00% # Class of executed instruction
system.cpu0.op_class::SimdAddAcc                    0      0.00%     75.00% # Class of executed instruction
system.cpu0.op_class::SimdAlu                       0      0.00%     75.00% # Class of executed instruction
system.cpu0.op_class::SimdCmp                       0      0.00%     75.00% # Class of executed instruction
system.cpu0.op_class::SimdCvt                       0      0.00%     75.00% # Class of executed instruction
system.cpu0.op_class::SimdMisc                      0      0.00%     75.00% # Class of executed instruction
system.cpu0.op_class::SimdMult                      0      0.00%     75.00% # Class of executed instruction
system.cpu0.op_class::SimdMultAcc                   0      0.00%     75.00% # Class of executed instruction
system.cpu0.op_class::SimdShift                     0      0.00%     75.00% # Class of executed instruction
system.cpu0.op_class::SimdShiftAcc                  0      0.00%     75.00% # Class of executed instruction
system.cpu0.op_class::SimdDiv                       0      0.00%     75.00% # Class of executed instruction
system.cpu0.op_class::SimdSqrt                      0      0.00%     75.00% # Class of executed instruction
system.cpu0.op_class::SimdFloatAdd                  0      0.00%     75.00% # Class of executed instruction
system.cpu0.op_class::SimdFloatAlu                  0      0.00%     75.00% # Class of executed instruction
system.cpu0.op_class::SimdFloatCmp                  0      0.00%     75.00% # Class of executed instruction
system.cpu0.op_class::SimdFloatCvt                  0      0.00%     75.00% # Class of executed instruction
system.cpu0.op_class::SimdFloatDiv                  0      0.00%     75.00% # Class of executed instruction
system.cpu0.op_class::SimdFloatMisc                 0      0.00%     75.00% # Class of executed instruction
system.cpu0.op_class::SimdFloatMult                 0      0.00%     75.00% # Class of executed instruction
system.cpu0.op_class::SimdFloatMultAcc              0      0.00%     75.00% # Class of executed instruction
system.cpu0.op_class::SimdFloatSqrt                 0      0.00%     75.00% # Class of executed instruction
system.cpu0.op_class::SimdReduceAdd                 0      0.00%     75.00% # Class of executed instruction
system.cpu0.op_class::SimdReduceAlu                 0      0.00%     75.00% # Class of executed instruction
system.cpu0.op_class::SimdReduceCmp                 0      0.00%     75.00% # Class of executed instruction
system.cpu0.op_class::SimdFloatReduceAdd            0      0.00%     75.00% # Class of executed instruction
system.cpu0.op_class::SimdFloatReduceCmp            0      0.00%     75.00% # Class of executed instruction
system.cpu0.op_class::SimdAes                       0      0.00%     75.00% # Class of executed instruction
system.cpu0.op_class::SimdAesMix                    0      0.00%     75.00% # Class of executed instruction
system.cpu0.op_class::SimdSha1Hash                  0      0.00%     75.00% # Class of executed instruction
system.cpu0.op_class::SimdSha1Hash2                 0      0.00%     75.00% # Class of executed instruction
system.cpu0.op_class::SimdSha256Hash                0      0.00%     75.00% # Class of executed instruction
system.cpu0.op_class::SimdSha256Hash2               0      0.00%     75.00% # Class of executed instruction
system.cpu0.op_class::SimdShaSigma2                 0      0.00%     75.00% # Class of executed instruction
system.cpu0.op_class::SimdShaSigma3                 0      0.00%     75.00% # Class of executed instruction
system.cpu0.op_class::SimdPredAlu                   0      0.00%     75.00% # Class of executed instruction
system.cpu0.op_class::MemRead                       6     25.00%    100.00% # Class of executed instruction
system.cpu0.op_class::MemWrite                      0      0.00%    100.00% # Class of executed instruction
system.cpu0.op_class::FloatMemRead                  0      0.00%    100.00% # Class of executed instruction
system.cpu0.op_class::FloatMemWrite                 0      0.00%    100.00% # Class of executed instruction
system.cpu0.op_class::IprAccess                     0      0.00%    100.00% # Class of executed instruction
system.cpu0.op_class::InstPrefetch                  0      0.00%    100.00% # Class of executed instruction
system.cpu0.op_class::total                        24                       # Class of executed instruction
system.cpu0.workload.numSyscalls                    0                       # Number of system calls
system.cpu1.Branches                                3                       # Number of branches fetched
system.cpu1.committedInsts                         12                       # Number of instructions committed
system.cpu1.committedOps                           27                       # Number of ops (including micro ops) committed
system.cpu1.idle_fraction                           0                       # Percentage of idle cycles
system.cpu1.l2bus.snoop_filter.hit_multi_requests            3                       # Number of requests hitting in the snoop filter with multiple (>1) holders of the requested data.
system.cpu1.l2bus.snoop_filter.hit_multi_snoops            0                       # Number of snoops hitting in the snoop filter with multiple (>1) holders of the requested data.
system.cpu1.l2bus.snoop_filter.hit_single_requests         6239                       # Number of requests hitting in the snoop filter with a single holder of the requested data.
system.cpu1.l2bus.snoop_filter.hit_single_snoops            0                       # Number of snoops hitting in the snoop filter with a single holder of the requested data.
system.cpu1.l2bus.snoop_filter.tot_requests        13290                       # Total number of requests made to the snoop filter.
system.cpu1.l2bus.snoop_filter.tot_snoops            0                       # Total number of snoops made to the snoop filter.
system.cpu1.mmucache.mmubus.snoop_filter.hit_multi_requests            0                       # Number of requests hitting in the snoop filter with multiple (>1) holders of the requested data.
system.cpu1.mmucache.mmubus.snoop_filter.hit_multi_snoops            0                       # Number of snoops hitting in the snoop filter with multiple (>1) holders of the requested data.
system.cpu1.mmucache.mmubus.snoop_filter.hit_single_requests            0                       # Number of requests hitting in the snoop filter with a single holder of the requested data.
system.cpu1.mmucache.mmubus.snoop_filter.hit_single_snoops            0                       # Number of snoops hitting in the snoop filter with a single holder of the requested data.
system.cpu1.mmucache.mmubus.snoop_filter.tot_requests            0                       # Total number of requests made to the snoop filter.
system.cpu1.mmucache.mmubus.snoop_filter.tot_snoops            0                       # Total number of snoops made to the snoop filter.
system.cpu1.not_idle_fraction                       1                       # Percentage of non-idle cycles
system.cpu1.numCycles                              30                       # number of cpu cycles simulated
system.cpu1.numWorkItemsCompleted                   0                       # number of work items this cpu completed
system.cpu1.numWorkItemsStarted                     0                       # number of work items this cpu started
system.cpu1.num_busy_cycles                        30                       # Number of busy cycles
system.cpu1.num_cc_register_reads                  11                       # number of times the CC registers were read
system.cpu1.num_cc_register_writes                 10                       # number of times the CC registers were written
system.cpu1.num_conditional_control_insts            2                       # number of instructions that are conditional controls
system.cpu1.num_fp_alu_accesses                     0                       # Number of float alu accesses
system.cpu1.num_fp_insts                            0                       # number of float instructions
system.cpu1.num_fp_register_reads                   0                       # number of times the floating registers were read
system.cpu1.num_fp_register_writes                  0                       # number of times the floating registers were written
system.cpu1.num_func_calls                          0                       # number of times a function call or return occured
system.cpu1.num_idle_cycles                         0                       # Number of idle cycles
system.cpu1.num_int_alu_accesses                   26                       # Number of integer alu accesses
system.cpu1.num_int_insts                          26                       # number of integer instructions
system.cpu1.num_int_register_reads                 44                       # number of times the integer registers were read
system.cpu1.num_int_register_writes                22                       # number of times the integer registers were written
system.cpu1.num_load_insts                          3                       # Number of load instructions
system.cpu1.num_mem_refs                            4                       # number of memory refs
system.cpu1.num_store_insts                         1                       # Number of store instructions
system.cpu1.num_vec_alu_accesses                    0                       # Number of vector alu accesses
system.cpu1.num_vec_insts                           0                       # number of vector instructions
system.cpu1.num_vec_register_reads                  0                       # number of times the vector registers were read
system.cpu1.num_vec_register_writes                 0                       # number of times the vector registers were written
system.cpu1.op_class::No_OpClass                    0      0.00%      0.00% # Class of executed instruction
system.cpu1.op_class::IntAlu                       23     85.19%     85.19% # Class of executed instruction
system.cpu1.op_class::IntMult                       0      0.00%     85.19% # Class of executed instruction
system.cpu1.op_class::IntDiv                        0      0.00%     85.19% # Class of executed instruction
system.cpu1.op_class::FloatAdd                      0      0.00%     85.19% # Class of executed instruction
system.cpu1.op_class::FloatCmp                      0      0.00%     85.19% # Class of executed instruction
system.cpu1.op_class::FloatCvt                      0      0.00%     85.19% # Class of executed instruction
system.cpu1.op_class::FloatMult                     0      0.00%     85.19% # Class of executed instruction
system.cpu1.op_class::FloatMultAcc                  0      0.00%     85.19% # Class of executed instruction
system.cpu1.op_class::FloatDiv                      0      0.00%     85.19% # Class of executed instruction
system.cpu1.op_class::FloatMisc                     0      0.00%     85.19% # Class of executed instruction
system.cpu1.op_class::FloatSqrt                     0      0.00%     85.19% # Class of executed instruction
system.cpu1.op_class::SimdAdd                       0      0.00%     85.19% # Class of executed instruction
system.cpu1.op_class::SimdAddAcc                    0      0.00%     85.19% # Class of executed instruction
system.cpu1.op_class::SimdAlu                       0      0.00%     85.19% # Class of executed instruction
system.cpu1.op_class::SimdCmp                       0      0.00%     85.19% # Class of executed instruction
system.cpu1.op_class::SimdCvt                       0      0.00%     85.19% # Class of executed instruction
system.cpu1.op_class::SimdMisc                      0      0.00%     85.19% # Class of executed instruction
system.cpu1.op_class::SimdMult                      0      0.00%     85.19% # Class of executed instruction
system.cpu1.op_class::SimdMultAcc                   0      0.00%     85.19% # Class of executed instruction
system.cpu1.op_class::SimdShift                     0      0.00%     85.19% # Class of executed instruction
system.cpu1.op_class::SimdShiftAcc                  0      0.00%     85.19% # Class of executed instruction
system.cpu1.op_class::SimdDiv                       0      0.00%     85.19% # Class of executed instruction
system.cpu1.op_class::SimdSqrt                      0      0.00%     85.19% # Class of executed instruction
system.cpu1.op_class::SimdFloatAdd                  0      0.00%     85.19% # Class of executed instruction
system.cpu1.op_class::SimdFloatAlu                  0      0.00%     85.19% # Class of executed instruction
system.cpu1.op_class::SimdFloatCmp                  0      0.00%     85.19% # Class of executed instruction
system.cpu1.op_class::SimdFloatCvt                  0      0.00%     85.19% # Class of executed instruction
system.cpu1.op_class::SimdFloatDiv                  0      0.00%     85.19% # Class of executed instruction
system.cpu1.op_class::SimdFloatMisc                 0      0.00%     85.19% # Class of executed instruction
system.cpu1.op_class::SimdFloatMult                 0      0.00%     85.19% # Class of executed instruction
system.cpu1.op_class::SimdFloatMultAcc              0      0.00%     85.19% # Class of executed instruction
system.cpu1.op_class::SimdFloatSqrt                 0      0.00%     85.19% # Class of executed instruction
system.cpu1.op_class::SimdReduceAdd                 0      0.00%     85.19% # Class of executed instruction
system.cpu1.op_class::SimdReduceAlu                 0      0.00%     85.19% # Class of executed instruction
system.cpu1.op_class::SimdReduceCmp                 0      0.00%     85.19% # Class of executed instruction
system.cpu1.op_class::SimdFloatReduceAdd            0      0.00%     85.19% # Class of executed instruction
system.cpu1.op_class::SimdFloatReduceCmp            0      0.00%     85.19% # Class of executed instruction
system.cpu1.op_class::SimdAes                       0      0.00%     85.19% # Class of executed instruction
system.cpu1.op_class::SimdAesMix                    0      0.00%     85.19% # Class of executed instruction
system.cpu1.op_class::SimdSha1Hash                  0      0.00%     85.19% # Class of executed instruction
system.cpu1.op_class::SimdSha1Hash2                 0      0.00%     85.19% # Class of executed instruction
system.cpu1.op_class::SimdSha256Hash                0      0.00%     85.19% # Class of executed instruction
system.cpu1.op_class::SimdSha256Hash2               0      0.00%     85.19% # Class of executed instruction
system.cpu1.op_class::SimdShaSigma2                 0      0.00%     85.19% # Class of executed instruction
system.cpu1.op_class::SimdShaSigma3                 0      0.00%     85.19% # Class of executed instruction
system.cpu1.op_class::SimdPredAlu                   0      0.00%     85.19% # Class of executed instruction
system.cpu1.op_class::MemRead                       3     11.11%     96.30% # Class of executed instruction
system.cpu1.op_class::MemWrite                      1      3.70%    100.00% # Class of executed instruction
system.cpu1.op_class::FloatMemRead                  0      0.00%    100.00% # Class of executed instruction
system.cpu1.op_class::FloatMemWrite                 0      0.00%    100.00% # Class of executed instruction
system.cpu1.op_class::IprAccess                     0      0.00%    100.00% # Class of executed instruction
system.cpu1.op_class::InstPrefetch                  0      0.00%    100.00% # Class of executed instruction
system.cpu1.op_class::total                        27                       # Class of executed instruction
system.cpu1.workload.numSyscalls                    0                       # Number of system calls
system.cpu2.Branches                                2                       # Number of branches fetched
system.cpu2.committedInsts                         16                       # Number of instructions committed
system.cpu2.committedOps                           28                       # Number of ops (including micro ops) committed
system.cpu2.idle_fraction                           0                       # Percentage of idle cycles
system.cpu2.l2bus.snoop_filter.hit_multi_requests            2                       # Number of requests hitting in the snoop filter with multiple (>1) holders of the requested data.
system.cpu2.l2bus.snoop_filter.hit_multi_snoops            0                       # Number of snoops hitting in the snoop filter with multiple (>1) holders of the requested data.
system.cpu2.l2bus.snoop_filter.hit_single_requests        40834                       # Number of requests hitting in the snoop filter with a single holder of the requested data.
system.cpu2.l2bus.snoop_filter.hit_single_snoops          556                       # Number of snoops hitting in the snoop filter with a single holder of the requested data.
system.cpu2.l2bus.snoop_filter.tot_requests        82455                       # Total number of requests made to the snoop filter.
system.cpu2.l2bus.snoop_filter.tot_snoops          556                       # Total number of snoops made to the snoop filter.
system.cpu2.mmucache.mmubus.snoop_filter.hit_multi_requests            0                       # Number of requests hitting in the snoop filter with multiple (>1) holders of the requested data.
system.cpu2.mmucache.mmubus.snoop_filter.hit_multi_snoops            0                       # Number of snoops hitting in the snoop filter with multiple (>1) holders of the requested data.
system.cpu2.mmucache.mmubus.snoop_filter.hit_single_requests            0                       # Number of requests hitting in the snoop filter with a single holder of the requested data.
system.cpu2.mmucache.mmubus.snoop_filter.hit_single_snoops            0                       # Number of snoops hitting in the snoop filter with a single holder of the requested data.
system.cpu2.mmucache.mmubus.snoop_filter.tot_requests            0                       # Total number of requests made to the snoop filter.
system.cpu2.mmucache.mmubus.snoop_filter.tot_snoops            0                       # Total number of snoops made to the snoop filter.
system.cpu2.not_idle_fraction                       1                       # Percentage of non-idle cycles
system.cpu2.numCycles                              31                       # number of cpu cycles simulated
system.cpu2.numWorkItemsCompleted                   0                       # number of work items this cpu completed
system.cpu2.numWorkItemsStarted                     0                       # number of work items this cpu started
system.cpu2.num_busy_cycles                        31                       # Number of busy cycles
system.cpu2.num_cc_register_reads                  10                       # number of times the CC registers were read
system.cpu2.num_cc_register_writes                 18                       # number of times the CC registers were written
system.cpu2.num_conditional_control_insts            2                       # number of instructions that are conditional controls
system.cpu2.num_fp_alu_accesses                     0                       # Number of float alu accesses
system.cpu2.num_fp_insts                            0                       # number of float instructions
system.cpu2.num_fp_register_reads                   0                       # number of times the floating registers were read
system.cpu2.num_fp_register_writes                  0                       # number of times the floating registers were written
system.cpu2.num_func_calls                          0                       # number of times a function call or return occured
system.cpu2.num_idle_cycles                         0                       # Number of idle cycles
system.cpu2.num_int_alu_accesses                   28                       # Number of integer alu accesses
system.cpu2.num_int_insts                          28                       # number of integer instructions
system.cpu2.num_int_register_reads                 54                       # number of times the integer registers were read
system.cpu2.num_int_register_writes                28                       # number of times the integer registers were written
system.cpu2.num_load_insts                          6                       # Number of load instructions
system.cpu2.num_mem_refs                            6                       # number of memory refs
system.cpu2.num_store_insts                         0                       # Number of store instructions
system.cpu2.num_vec_alu_accesses                    0                       # Number of vector alu accesses
system.cpu2.num_vec_insts                           0                       # number of vector instructions
system.cpu2.num_vec_register_reads                  0                       # number of times the vector registers were read
system.cpu2.num_vec_register_writes                 0                       # number of times the vector registers were written
system.cpu2.op_class::No_OpClass                    0      0.00%      0.00% # Class of executed instruction
system.cpu2.op_class::IntAlu                       20     71.43%     71.43% # Class of executed instruction
system.cpu2.op_class::IntMult                       2      7.14%     78.57% # Class of executed instruction
system.cpu2.op_class::IntDiv                        0      0.00%     78.57% # Class of executed instruction
system.cpu2.op_class::FloatAdd                      0      0.00%     78.57% # Class of executed instruction
system.cpu2.op_class::FloatCmp                      0      0.00%     78.57% # Class of executed instruction
system.cpu2.op_class::FloatCvt                      0      0.00%     78.57% # Class of executed instruction
system.cpu2.op_class::FloatMult                     0      0.00%     78.57% # Class of executed instruction
system.cpu2.op_class::FloatMultAcc                  0      0.00%     78.57% # Class of executed instruction
system.cpu2.op_class::FloatDiv                      0      0.00%     78.57% # Class of executed instruction
system.cpu2.op_class::FloatMisc                     0      0.00%     78.57% # Class of executed instruction
system.cpu2.op_class::FloatSqrt                     0      0.00%     78.57% # Class of executed instruction
system.cpu2.op_class::SimdAdd                       0      0.00%     78.57% # Class of executed instruction
system.cpu2.op_class::SimdAddAcc                    0      0.00%     78.57% # Class of executed instruction
system.cpu2.op_class::SimdAlu                       0      0.00%     78.57% # Class of executed instruction
system.cpu2.op_class::SimdCmp                       0      0.00%     78.57% # Class of executed instruction
system.cpu2.op_class::SimdCvt                       0      0.00%     78.57% # Class of executed instruction
system.cpu2.op_class::SimdMisc                      0      0.00%     78.57% # Class of executed instruction
system.cpu2.op_class::SimdMult                      0      0.00%     78.57% # Class of executed instruction
system.cpu2.op_class::SimdMultAcc                   0      0.00%     78.57% # Class of executed instruction
system.cpu2.op_class::SimdShift                     0      0.00%     78.57% # Class of executed instruction
system.cpu2.op_class::SimdShiftAcc                  0      0.00%     78.57% # Class of executed instruction
system.cpu2.op_class::SimdDiv                       0      0.00%     78.57% # Class of executed instruction
system.cpu2.op_class::SimdSqrt                      0      0.00%     78.57% # Class of executed instruction
system.cpu2.op_class::SimdFloatAdd                  0      0.00%     78.57% # Class of executed instruction
system.cpu2.op_class::SimdFloatAlu                  0      0.00%     78.57% # Class of executed instruction
system.cpu2.op_class::SimdFloatCmp                  0      0.00%     78.57% # Class of executed instruction
system.cpu2.op_class::SimdFloatCvt                  0      0.00%     78.57% # Class of executed instruction
system.cpu2.op_class::SimdFloatDiv                  0      0.00%     78.57% # Class of executed instruction
system.cpu2.op_class::SimdFloatMisc                 0      0.00%     78.57% # Class of executed instruction
system.cpu2.op_class::SimdFloatMult                 0      0.00%     78.57% # Class of executed instruction
system.cpu2.op_class::SimdFloatMultAcc              0      0.00%     78.57% # Class of executed instruction
system.cpu2.op_class::SimdFloatSqrt                 0      0.00%     78.57% # Class of executed instruction
system.cpu2.op_class::SimdReduceAdd                 0      0.00%     78.57% # Class of executed instruction
system.cpu2.op_class::SimdReduceAlu                 0      0.00%     78.57% # Class of executed instruction
system.cpu2.op_class::SimdReduceCmp                 0      0.00%     78.57% # Class of executed instruction
system.cpu2.op_class::SimdFloatReduceAdd            0      0.00%     78.57% # Class of executed instruction
system.cpu2.op_class::SimdFloatReduceCmp            0      0.00%     78.57% # Class of executed instruction
system.cpu2.op_class::SimdAes                       0      0.00%     78.57% # Class of executed instruction
system.cpu2.op_class::SimdAesMix                    0      0.00%     78.57% # Class of executed instruction
system.cpu2.op_class::SimdSha1Hash                  0      0.00%     78.57% # Class of executed instruction
system.cpu2.op_class::SimdSha1Hash2                 0      0.00%     78.57% # Class of executed instruction
system.cpu2.op_class::SimdSha256Hash                0      0.00%     78.57% # Class of executed instruction
system.cpu2.op_class::SimdSha256Hash2               0      0.00%     78.57% # Class of executed instruction
system.cpu2.op_class::SimdShaSigma2                 0      0.00%     78.57% # Class of executed instruction
system.cpu2.op_class::SimdShaSigma3                 0      0.00%     78.57% # Class of executed instruction
system.cpu2.op_class::SimdPredAlu                   0      0.00%     78.57% # Class of executed instruction
system.cpu2.op_class::MemRead                       6     21.43%    100.00% # Class of executed instruction
system.cpu2.op_class::MemWrite                      0      0.00%    100.00% # Class of executed instruction
system.cpu2.op_class::FloatMemRead                  0      0.00%    100.00% # Class of executed instruction
system.cpu2.op_class::FloatMemWrite                 0      0.00%    100.00% # Class of executed instruction
system.cpu2.op_class::IprAccess                     0      0.00%    100.00% # Class of executed instruction
system.cpu2.op_class::InstPrefetch                  0      0.00%    100.00% # Class of executed instruction
system.cpu2.op_class::total                        28                       # Class of executed instruction
system.cpu2.workload.numSyscalls                    0                       # Number of system calls
system.cpu3.Branches                                1                       # Number of branches fetched
system.cpu3.committedInsts                         14                       # Number of instructions committed
system.cpu3.committedOps                           23                       # Number of ops (including micro ops) committed
system.cpu3.idle_fraction                           0                       # Percentage of idle cycles
system.cpu3.l2bus.snoop_filter.hit_multi_requests            3                       # Number of requests hitting in the snoop filter with multiple (>1) holders of the requested data.
system.cpu3.l2bus.snoop_filter.hit_multi_snoops            0                       # Number of snoops hitting in the snoop filter with multiple (>1) holders of the requested data.
system.cpu3.l2bus.snoop_filter.hit_single_requests      1705912                       # Number of requests hitting in the snoop filter with a single holder of the requested data.
system.cpu3.l2bus.snoop_filter.hit_single_snoops         3054                       # Number of snoops hitting in the snoop filter with a single holder of the requested data.
system.cpu3.l2bus.snoop_filter.tot_requests      3328534                       # Total number of requests made to the snoop filter.
system.cpu3.l2bus.snoop_filter.tot_snoops         3054                       # Total number of snoops made to the snoop filter.
system.cpu3.mmucache.mmubus.snoop_filter.hit_multi_requests            0                       # Number of requests hitting in the snoop filter with multiple (>1) holders of the requested data.
system.cpu3.mmucache.mmubus.snoop_filter.hit_multi_snoops            0                       # Number of snoops hitting in the snoop filter with multiple (>1) holders of the requested data.
system.cpu3.mmucache.mmubus.snoop_filter.hit_single_requests            0                       # Number of requests hitting in the snoop filter with a single holder of the requested data.
system.cpu3.mmucache.mmubus.snoop_filter.hit_single_snoops            0                       # Number of snoops hitting in the snoop filter with a single holder of the requested data.
system.cpu3.mmucache.mmubus.snoop_filter.tot_requests            0                       # Total number of requests made to the snoop filter.
system.cpu3.mmucache.mmubus.snoop_filter.tot_snoops            0                       # Total number of snoops made to the snoop filter.
system.cpu3.not_idle_fraction                       1                       # Percentage of non-idle cycles
system.cpu3.numCycles                              30                       # number of cpu cycles simulated
system.cpu3.numWorkItemsCompleted                   0                       # number of work items this cpu completed
system.cpu3.numWorkItemsStarted                     0                       # number of work items this cpu started
system.cpu3.num_busy_cycles                        30                       # Number of busy cycles
system.cpu3.num_cc_register_reads                   5                       # number of times the CC registers were read
system.cpu3.num_cc_register_writes                  8                       # number of times the CC registers were written
system.cpu3.num_conditional_control_insts            1                       # number of instructions that are conditional controls
system.cpu3.num_fp_alu_accesses                    12                       # Number of float alu accesses
system.cpu3.num_fp_insts                           12                       # number of float instructions
system.cpu3.num_fp_register_reads                  21                       # number of times the floating registers were read
system.cpu3.num_fp_register_writes                 11                       # number of times the floating registers were written
system.cpu3.num_func_calls                          0                       # number of times a function call or return occured
system.cpu3.num_idle_cycles                         0                       # Number of idle cycles
system.cpu3.num_int_alu_accesses                   16                       # Number of integer alu accesses
system.cpu3.num_int_insts                          16                       # number of integer instructions
system.cpu3.num_int_register_reads                 33                       # number of times the integer registers were read
system.cpu3.num_int_register_writes                10                       # number of times the integer registers were written
system.cpu3.num_load_insts                          6                       # Number of load instructions
system.cpu3.num_mem_refs                            7                       # number of memory refs
system.cpu3.num_store_insts                         1                       # Number of store instructions
system.cpu3.num_vec_alu_accesses                    0                       # Number of vector alu accesses
system.cpu3.num_vec_insts                           0                       # number of vector instructions
system.cpu3.num_vec_register_reads                  0                       # number of times the vector registers were read
system.cpu3.num_vec_register_writes                 0                       # number of times the vector registers were written
system.cpu3.op_class::No_OpClass                    0      0.00%      0.00% # Class of executed instruction
system.cpu3.op_class::IntAlu                       10     43.48%     43.48% # Class of executed instruction
system.cpu3.op_class::IntMult                       0      0.00%     43.48% # Class of executed instruction
system.cpu3.op_class::IntDiv                        0      0.00%     43.48% # Class of executed instruction
system.cpu3.op_class::FloatAdd                      0      0.00%     43.48% # Class of executed instruction
system.cpu3.op_class::FloatCmp                      0      0.00%     43.48% # Class of executed instruction
system.cpu3.op_class::FloatCvt                      0      0.00%     43.48% # Class of executed instruction
system.cpu3.op_class::FloatMult                     0      0.00%     43.48% # Class of executed instruction
system.cpu3.op_class::FloatMultAcc                  0      0.00%     43.48% # Class of executed instruction
system.cpu3.op_class::FloatDiv                      0      0.00%     43.48% # Class of executed instruction
system.cpu3.op_class::FloatMisc                     0      0.00%     43.48% # Class of executed instruction
system.cpu3.op_class::FloatSqrt                     0      0.00%     43.48% # Class of executed instruction
system.cpu3.op_class::SimdAdd                       0      0.00%     43.48% # Class of executed instruction
system.cpu3.op_class::SimdAddAcc                    0      0.00%     43.48% # Class of executed instruction
system.cpu3.op_class::SimdAlu                       0      0.00%     43.48% # Class of executed instruction
system.cpu3.op_class::SimdCmp                       0      0.00%     43.48% # Class of executed instruction
system.cpu3.op_class::SimdCvt                       0      0.00%     43.48% # Class of executed instruction
system.cpu3.op_class::SimdMisc                      0      0.00%     43.48% # Class of executed instruction
system.cpu3.op_class::SimdMult                      0      0.00%     43.48% # Class of executed instruction
system.cpu3.op_class::SimdMultAcc                   0      0.00%     43.48% # Class of executed instruction
system.cpu3.op_class::SimdShift                     0      0.00%     43.48% # Class of executed instruction
system.cpu3.op_class::SimdShiftAcc                  0      0.00%     43.48% # Class of executed instruction
system.cpu3.op_class::SimdDiv                       0      0.00%     43.48% # Class of executed instruction
system.cpu3.op_class::SimdSqrt                      0      0.00%     43.48% # Class of executed instruction
system.cpu3.op_class::SimdFloatAdd                  4     17.39%     60.87% # Class of executed instruction
system.cpu3.op_class::SimdFloatAlu                  0      0.00%     60.87% # Class of executed instruction
system.cpu3.op_class::SimdFloatCmp                  0      0.00%     60.87% # Class of executed instruction
system.cpu3.op_class::SimdFloatCvt                  0      0.00%     60.87% # Class of executed instruction
system.cpu3.op_class::SimdFloatDiv                  0      0.00%     60.87% # Class of executed instruction
system.cpu3.op_class::SimdFloatMisc                 0      0.00%     60.87% # Class of executed instruction
system.cpu3.op_class::SimdFloatMult                 2      8.70%     69.57% # Class of executed instruction
system.cpu3.op_class::SimdFloatMultAcc              0      0.00%     69.57% # Class of executed instruction
system.cpu3.op_class::SimdFloatSqrt                 0      0.00%     69.57% # Class of executed instruction
system.cpu3.op_class::SimdReduceAdd                 0      0.00%     69.57% # Class of executed instruction
system.cpu3.op_class::SimdReduceAlu                 0      0.00%     69.57% # Class of executed instruction
system.cpu3.op_class::SimdReduceCmp                 0      0.00%     69.57% # Class of executed instruction
system.cpu3.op_class::SimdFloatReduceAdd            0      0.00%     69.57% # Class of executed instruction
system.cpu3.op_class::SimdFloatReduceCmp            0      0.00%     69.57% # Class of executed instruction
system.cpu3.op_class::SimdAes                       0      0.00%     69.57% # Class of executed instruction
system.cpu3.op_class::SimdAesMix                    0      0.00%     69.57% # Class of executed instruction
system.cpu3.op_class::SimdSha1Hash                  0      0.00%     69.57% # Class of executed instruction
system.cpu3.op_class::SimdSha1Hash2                 0      0.00%     69.57% # Class of executed instruction
system.cpu3.op_class::SimdSha256Hash                0      0.00%     69.57% # Class of executed instruction
system.cpu3.op_class::SimdSha256Hash2               0      0.00%     69.57% # Class of executed instruction
system.cpu3.op_class::SimdShaSigma2                 0      0.00%     69.57% # Class of executed instruction
system.cpu3.op_class::SimdShaSigma3                 0      0.00%     69.57% # Class of executed instruction
system.cpu3.op_class::SimdPredAlu                   0      0.00%     69.57% # Class of executed instruction
system.cpu3.op_class::MemRead                       2      8.70%     78.26% # Class of executed instruction
system.cpu3.op_class::MemWrite                      0      0.00%     78.26% # Class of executed instruction
system.cpu3.op_class::FloatMemRead                  4     17.39%     95.65% # Class of executed instruction
system.cpu3.op_class::FloatMemWrite                 1      4.35%    100.00% # Class of executed instruction
system.cpu3.op_class::IprAccess                     0      0.00%    100.00% # Class of executed instruction
system.cpu3.op_class::InstPrefetch                  0      0.00%    100.00% # Class of executed instruction
system.cpu3.op_class::total                        23                       # Class of executed instruction
system.cpu3.workload.numSyscalls                    0                       # Number of system calls
system.l3bus.snoop_filter.hit_multi_requests            0                       # Number of requests hitting in the snoop filter with multiple (>1) holders of the requested data.
system.l3bus.snoop_filter.hit_multi_snoops            0                       # Number of snoops hitting in the snoop filter with multiple (>1) holders of the requested data.
system.l3bus.snoop_filter.hit_single_requests      1285527                       # Number of requests hitting in the snoop filter with a single holder of the requested data.
system.l3bus.snoop_filter.hit_single_snoops            0                       # Number of snoops hitting in the snoop filter with a single holder of the requested data.
system.l3bus.snoop_filter.tot_requests        2585688                       # Total number of requests made to the snoop filter.
system.l3bus.snoop_filter.tot_snoops                0                       # Total number of snoops made to the snoop filter.
system.membus.snoop_filter.hit_multi_requests            0                       # Number of requests hitting in the snoop filter with multiple (>1) holders of the requested data.
system.membus.snoop_filter.hit_multi_snoops            0                       # Number of snoops hitting in the snoop filter with multiple (>1) holders of the requested data.
system.membus.snoop_filter.hit_single_requests       602632                       # Number of requests hitting in the snoop filter with a single holder of the requested data.
system.membus.snoop_filter.hit_single_snoops            0                       # Number of snoops hitting in the snoop filter with a single holder of the requested data.
system.membus.snoop_filter.tot_requests       1283508                       # Total number of requests made to the snoop filter.
system.membus.snoop_filter.tot_snoops               0                       # Total number of snoops made to the snoop filter.
system.switch_cpus0.cc_regfile_reads        167219578                       # number of cc regfile reads
system.switch_cpus0.cc_regfile_writes       113581541                       # number of cc regfile writes
system.switch_cpus0.committedInsts          126394851                       # Number of Instructions Simulated
system.switch_cpus0.committedOps            236050929                       # Number of Ops (including micro ops) Simulated
system.switch_cpus0.cpi                      0.945700                       # CPI: Cycles Per Instruction
system.switch_cpus0.cpi_total                0.945700                       # CPI: Total CPI of All Threads
system.switch_cpus0.fp_regfile_reads           851519                       # number of floating regfile reads
system.switch_cpus0.fp_regfile_writes          649407                       # number of floating regfile writes
system.switch_cpus0.idleCycles                  95771                       # Total number of cycles that the CPU has spent unscheduled due to idling
system.switch_cpus0.iew.branchMispredicts      2896974                       # Number of branch mispredicts detected at execute
system.switch_cpus0.iew.exec_branches        30419520                       # Number of branches executed
system.switch_cpus0.iew.exec_nop                    0                       # number of nop insts executed
system.switch_cpus0.iew.exec_rate            2.761076                       # Inst execution rate
system.switch_cpus0.iew.exec_refs            65937013                       # number of memory reference insts executed
system.switch_cpus0.iew.exec_stores          16267431                       # Number of stores executed
system.switch_cpus0.iew.exec_swp                    0                       # number of swp insts executed
system.switch_cpus0.iew.iewBlockCycles       20399335                       # Number of cycles IEW is blocking
system.switch_cpus0.iew.iewDispLoadInsts     61439613                       # Number of dispatched load instructions
system.switch_cpus0.iew.iewDispNonSpecInsts            3                       # Number of dispatched non-speculative instructions
system.switch_cpus0.iew.iewDispSquashedInsts        76202                       # Number of squashed instructions skipped by dispatch
system.switch_cpus0.iew.iewDispStoreInsts     20013965                       # Number of dispatched store instructions
system.switch_cpus0.iew.iewDispatchedInsts    401343727                       # Number of instructions dispatched to IQ
system.switch_cpus0.iew.iewExecLoadInsts     49669582                       # Number of load instructions executed
system.switch_cpus0.iew.iewExecSquashedInsts      5465997                       # Number of squashed instructions skipped in execute
system.switch_cpus0.iew.iewExecutedInsts    330035888                       # Number of executed instructions
system.switch_cpus0.iew.iewIQFullEvents          6404                       # Number of times the IQ has become full, causing a stall
system.switch_cpus0.iew.iewIdleCycles               0                       # Number of cycles IEW is idle
system.switch_cpus0.iew.iewLSQFullEvents        19296                       # Number of times the LSQ has become full, causing a stall
system.switch_cpus0.iew.iewSquashCycles       2568451                       # Number of cycles IEW is squashing
system.switch_cpus0.iew.iewUnblockCycles        27129                       # Number of cycles IEW is unblocking
system.switch_cpus0.iew.memOrderViolationEvents        19414                       # Number of memory order violations
system.switch_cpus0.iew.predictedNotTakenIncorrect      1601506                       # Number of branches that were predicted not taken incorrectly
system.switch_cpus0.iew.predictedTakenIncorrect      1295468                       # Number of branches that were predicted taken incorrectly
system.switch_cpus0.iew.wb_consumers        456280279                       # num instructions consuming a value
system.switch_cpus0.iew.wb_count            327682141                       # cumulative count of insts written-back
system.switch_cpus0.iew.wb_fanout            0.559818                       # average fanout of values written-back
system.switch_cpus0.iew.wb_producers        255434048                       # num instructions producing a value
system.switch_cpus0.iew.wb_rate              2.741385                       # insts written-back per cycle
system.switch_cpus0.iew.wb_sent             329417171                       # cumulative count of insts sent to commit
system.switch_cpus0.int_regfile_reads       511322309                       # number of integer regfile reads
system.switch_cpus0.int_regfile_writes      292733559                       # number of integer regfile writes
system.switch_cpus0.ipc                      1.057418                       # IPC: Instructions Per Cycle
system.switch_cpus0.ipc_total                1.057418                       # IPC: Total IPC of All Threads
system.switch_cpus0.iq.FU_type_0::No_OpClass      1783962      0.53%      0.53% # Type of FU issued
system.switch_cpus0.iq.FU_type_0::IntAlu    258886330     77.16%     77.70% # Type of FU issued
system.switch_cpus0.iq.FU_type_0::IntMult      1634789      0.49%     78.18% # Type of FU issued
system.switch_cpus0.iq.FU_type_0::IntDiv      4710951      1.40%     79.59% # Type of FU issued
system.switch_cpus0.iq.FU_type_0::FloatAdd        28313      0.01%     79.60% # Type of FU issued
system.switch_cpus0.iq.FU_type_0::FloatCmp            0      0.00%     79.60% # Type of FU issued
system.switch_cpus0.iq.FU_type_0::FloatCvt            0      0.00%     79.60% # Type of FU issued
system.switch_cpus0.iq.FU_type_0::FloatMult            0      0.00%     79.60% # Type of FU issued
system.switch_cpus0.iq.FU_type_0::FloatMultAcc            0      0.00%     79.60% # Type of FU issued
system.switch_cpus0.iq.FU_type_0::FloatDiv            0      0.00%     79.60% # Type of FU issued
system.switch_cpus0.iq.FU_type_0::FloatMisc            0      0.00%     79.60% # Type of FU issued
system.switch_cpus0.iq.FU_type_0::FloatSqrt            0      0.00%     79.60% # Type of FU issued
system.switch_cpus0.iq.FU_type_0::SimdAdd            0      0.00%     79.60% # Type of FU issued
system.switch_cpus0.iq.FU_type_0::SimdAddAcc            0      0.00%     79.60% # Type of FU issued
system.switch_cpus0.iq.FU_type_0::SimdAlu        26829      0.01%     79.60% # Type of FU issued
system.switch_cpus0.iq.FU_type_0::SimdCmp            0      0.00%     79.60% # Type of FU issued
system.switch_cpus0.iq.FU_type_0::SimdCvt            0      0.00%     79.60% # Type of FU issued
system.switch_cpus0.iq.FU_type_0::SimdMisc        58809      0.02%     79.62% # Type of FU issued
system.switch_cpus0.iq.FU_type_0::SimdMult            0      0.00%     79.62% # Type of FU issued
system.switch_cpus0.iq.FU_type_0::SimdMultAcc            0      0.00%     79.62% # Type of FU issued
system.switch_cpus0.iq.FU_type_0::SimdShift            0      0.00%     79.62% # Type of FU issued
system.switch_cpus0.iq.FU_type_0::SimdShiftAcc            0      0.00%     79.62% # Type of FU issued
system.switch_cpus0.iq.FU_type_0::SimdDiv            0      0.00%     79.62% # Type of FU issued
system.switch_cpus0.iq.FU_type_0::SimdSqrt            0      0.00%     79.62% # Type of FU issued
system.switch_cpus0.iq.FU_type_0::SimdFloatAdd        55968      0.02%     79.64% # Type of FU issued
system.switch_cpus0.iq.FU_type_0::SimdFloatAlu            0      0.00%     79.64% # Type of FU issued
system.switch_cpus0.iq.FU_type_0::SimdFloatCmp            0      0.00%     79.64% # Type of FU issued
system.switch_cpus0.iq.FU_type_0::SimdFloatCvt       125159      0.04%     79.67% # Type of FU issued
system.switch_cpus0.iq.FU_type_0::SimdFloatDiv         1464      0.00%     79.68% # Type of FU issued
system.switch_cpus0.iq.FU_type_0::SimdFloatMisc            0      0.00%     79.68% # Type of FU issued
system.switch_cpus0.iq.FU_type_0::SimdFloatMult            0      0.00%     79.68% # Type of FU issued
system.switch_cpus0.iq.FU_type_0::SimdFloatMultAcc            0      0.00%     79.68% # Type of FU issued
system.switch_cpus0.iq.FU_type_0::SimdFloatSqrt            0      0.00%     79.68% # Type of FU issued
system.switch_cpus0.iq.FU_type_0::SimdReduceAdd            0      0.00%     79.68% # Type of FU issued
system.switch_cpus0.iq.FU_type_0::SimdReduceAlu            0      0.00%     79.68% # Type of FU issued
system.switch_cpus0.iq.FU_type_0::SimdReduceCmp            0      0.00%     79.68% # Type of FU issued
system.switch_cpus0.iq.FU_type_0::SimdFloatReduceAdd            0      0.00%     79.68% # Type of FU issued
system.switch_cpus0.iq.FU_type_0::SimdFloatReduceCmp            0      0.00%     79.68% # Type of FU issued
system.switch_cpus0.iq.FU_type_0::SimdAes            0      0.00%     79.68% # Type of FU issued
system.switch_cpus0.iq.FU_type_0::SimdAesMix            0      0.00%     79.68% # Type of FU issued
system.switch_cpus0.iq.FU_type_0::SimdSha1Hash            0      0.00%     79.68% # Type of FU issued
system.switch_cpus0.iq.FU_type_0::SimdSha1Hash2            0      0.00%     79.68% # Type of FU issued
system.switch_cpus0.iq.FU_type_0::SimdSha256Hash            0      0.00%     79.68% # Type of FU issued
system.switch_cpus0.iq.FU_type_0::SimdSha256Hash2            0      0.00%     79.68% # Type of FU issued
system.switch_cpus0.iq.FU_type_0::SimdShaSigma2            0      0.00%     79.68% # Type of FU issued
system.switch_cpus0.iq.FU_type_0::SimdShaSigma3            0      0.00%     79.68% # Type of FU issued
system.switch_cpus0.iq.FU_type_0::SimdPredAlu            0      0.00%     79.68% # Type of FU issued
system.switch_cpus0.iq.FU_type_0::MemRead     50992052     15.20%     94.87% # Type of FU issued
system.switch_cpus0.iq.FU_type_0::MemWrite     16465819      4.91%     99.78% # Type of FU issued
system.switch_cpus0.iq.FU_type_0::FloatMemRead       431110      0.13%     99.91% # Type of FU issued
system.switch_cpus0.iq.FU_type_0::FloatMemWrite       300330      0.09%    100.00% # Type of FU issued
system.switch_cpus0.iq.FU_type_0::IprAccess            0      0.00%    100.00% # Type of FU issued
system.switch_cpus0.iq.FU_type_0::InstPrefetch            0      0.00%    100.00% # Type of FU issued
system.switch_cpus0.iq.FU_type_0::total     335501885                       # Type of FU issued
system.switch_cpus0.iq.fp_alu_accesses        1049356                       # Number of floating point alu accesses
system.switch_cpus0.iq.fp_inst_queue_reads      2089335                       # Number of floating instruction queue reads
system.switch_cpus0.iq.fp_inst_queue_wakeup_accesses      1007686                       # Number of floating instruction queue wakeup accesses
system.switch_cpus0.iq.fp_inst_queue_writes      1208930                       # Number of floating instruction queue writes
system.switch_cpus0.iq.fu_busy_cnt            5713077                       # FU busy when requested
system.switch_cpus0.iq.fu_busy_rate          0.017028                       # FU busy rate (busy events/executed inst)
system.switch_cpus0.iq.fu_full::No_OpClass            0      0.00%      0.00% # attempts to use FU when none available
system.switch_cpus0.iq.fu_full::IntAlu        4823361     84.43%     84.43% # attempts to use FU when none available
system.switch_cpus0.iq.fu_full::IntMult             0      0.00%     84.43% # attempts to use FU when none available
system.switch_cpus0.iq.fu_full::IntDiv              0      0.00%     84.43% # attempts to use FU when none available
system.switch_cpus0.iq.fu_full::FloatAdd            0      0.00%     84.43% # attempts to use FU when none available
system.switch_cpus0.iq.fu_full::FloatCmp            0      0.00%     84.43% # attempts to use FU when none available
system.switch_cpus0.iq.fu_full::FloatCvt            0      0.00%     84.43% # attempts to use FU when none available
system.switch_cpus0.iq.fu_full::FloatMult            0      0.00%     84.43% # attempts to use FU when none available
system.switch_cpus0.iq.fu_full::FloatMultAcc            0      0.00%     84.43% # attempts to use FU when none available
system.switch_cpus0.iq.fu_full::FloatDiv            0      0.00%     84.43% # attempts to use FU when none available
system.switch_cpus0.iq.fu_full::FloatMisc            0      0.00%     84.43% # attempts to use FU when none available
system.switch_cpus0.iq.fu_full::FloatSqrt            0      0.00%     84.43% # attempts to use FU when none available
system.switch_cpus0.iq.fu_full::SimdAdd             0      0.00%     84.43% # attempts to use FU when none available
system.switch_cpus0.iq.fu_full::SimdAddAcc            0      0.00%     84.43% # attempts to use FU when none available
system.switch_cpus0.iq.fu_full::SimdAlu             0      0.00%     84.43% # attempts to use FU when none available
system.switch_cpus0.iq.fu_full::SimdCmp             0      0.00%     84.43% # attempts to use FU when none available
system.switch_cpus0.iq.fu_full::SimdCvt             0      0.00%     84.43% # attempts to use FU when none available
system.switch_cpus0.iq.fu_full::SimdMisc            0      0.00%     84.43% # attempts to use FU when none available
system.switch_cpus0.iq.fu_full::SimdMult            0      0.00%     84.43% # attempts to use FU when none available
system.switch_cpus0.iq.fu_full::SimdMultAcc            0      0.00%     84.43% # attempts to use FU when none available
system.switch_cpus0.iq.fu_full::SimdShift            0      0.00%     84.43% # attempts to use FU when none available
system.switch_cpus0.iq.fu_full::SimdShiftAcc            0      0.00%     84.43% # attempts to use FU when none available
system.switch_cpus0.iq.fu_full::SimdDiv             0      0.00%     84.43% # attempts to use FU when none available
system.switch_cpus0.iq.fu_full::SimdSqrt            0      0.00%     84.43% # attempts to use FU when none available
system.switch_cpus0.iq.fu_full::SimdFloatAdd            0      0.00%     84.43% # attempts to use FU when none available
system.switch_cpus0.iq.fu_full::SimdFloatAlu            0      0.00%     84.43% # attempts to use FU when none available
system.switch_cpus0.iq.fu_full::SimdFloatCmp            0      0.00%     84.43% # attempts to use FU when none available
system.switch_cpus0.iq.fu_full::SimdFloatCvt            0      0.00%     84.43% # attempts to use FU when none available
system.switch_cpus0.iq.fu_full::SimdFloatDiv            0      0.00%     84.43% # attempts to use FU when none available
system.switch_cpus0.iq.fu_full::SimdFloatMisc            0      0.00%     84.43% # attempts to use FU when none available
system.switch_cpus0.iq.fu_full::SimdFloatMult            0      0.00%     84.43% # attempts to use FU when none available
system.switch_cpus0.iq.fu_full::SimdFloatMultAcc            0      0.00%     84.43% # attempts to use FU when none available
system.switch_cpus0.iq.fu_full::SimdFloatSqrt            0      0.00%     84.43% # attempts to use FU when none available
system.switch_cpus0.iq.fu_full::SimdReduceAdd            0      0.00%     84.43% # attempts to use FU when none available
system.switch_cpus0.iq.fu_full::SimdReduceAlu            0      0.00%     84.43% # attempts to use FU when none available
system.switch_cpus0.iq.fu_full::SimdReduceCmp            0      0.00%     84.43% # attempts to use FU when none available
system.switch_cpus0.iq.fu_full::SimdFloatReduceAdd            0      0.00%     84.43% # attempts to use FU when none available
system.switch_cpus0.iq.fu_full::SimdFloatReduceCmp            0      0.00%     84.43% # attempts to use FU when none available
system.switch_cpus0.iq.fu_full::SimdAes             0      0.00%     84.43% # attempts to use FU when none available
system.switch_cpus0.iq.fu_full::SimdAesMix            0      0.00%     84.43% # attempts to use FU when none available
system.switch_cpus0.iq.fu_full::SimdSha1Hash            0      0.00%     84.43% # attempts to use FU when none available
system.switch_cpus0.iq.fu_full::SimdSha1Hash2            0      0.00%     84.43% # attempts to use FU when none available
system.switch_cpus0.iq.fu_full::SimdSha256Hash            0      0.00%     84.43% # attempts to use FU when none available
system.switch_cpus0.iq.fu_full::SimdSha256Hash2            0      0.00%     84.43% # attempts to use FU when none available
system.switch_cpus0.iq.fu_full::SimdShaSigma2            0      0.00%     84.43% # attempts to use FU when none available
system.switch_cpus0.iq.fu_full::SimdShaSigma3            0      0.00%     84.43% # attempts to use FU when none available
system.switch_cpus0.iq.fu_full::SimdPredAlu            0      0.00%     84.43% # attempts to use FU when none available
system.switch_cpus0.iq.fu_full::MemRead        701668     12.28%     96.71% # attempts to use FU when none available
system.switch_cpus0.iq.fu_full::MemWrite       176565      3.09%     99.80% # attempts to use FU when none available
system.switch_cpus0.iq.fu_full::FloatMemRead         4678      0.08%     99.88% # attempts to use FU when none available
system.switch_cpus0.iq.fu_full::FloatMemWrite         6805      0.12%    100.00% # attempts to use FU when none available
system.switch_cpus0.iq.fu_full::IprAccess            0      0.00%    100.00% # attempts to use FU when none available
system.switch_cpus0.iq.fu_full::InstPrefetch            0      0.00%    100.00% # attempts to use FU when none available
system.switch_cpus0.iq.int_alu_accesses     338381644                       # Number of integer alu accesses
system.switch_cpus0.iq.int_inst_queue_reads    795671434                       # Number of integer instruction queue reads
system.switch_cpus0.iq.int_inst_queue_wakeup_accesses    326674455                       # Number of integer instruction queue wakeup accesses
system.switch_cpus0.iq.int_inst_queue_writes    565446216                       # Number of integer instruction queue writes
system.switch_cpus0.iq.iqInstsAdded         401343718                       # Number of instructions added to the IQ (excludes non-spec)
system.switch_cpus0.iq.iqInstsIssued        335501885                       # Number of instructions issued
system.switch_cpus0.iq.iqNonSpecInstsAdded            9                       # Number of non-speculative instructions added to the IQ
system.switch_cpus0.iq.iqSquashedInstsExamined    165292794                       # Number of squashed instructions iterated over during squash; mainly for profiling
system.switch_cpus0.iq.iqSquashedInstsIssued      1608074                       # Number of squashed instructions issued
system.switch_cpus0.iq.iqSquashedNonSpecRemoved            9                       # Number of squashed non-spec instructions that were removed
system.switch_cpus0.iq.iqSquashedOperandsExamined    241879686                       # Number of squashed operands that are examined and possibly removed from graph
system.switch_cpus0.iq.issued_per_cycle::samples    119435848                       # Number of insts issued each cycle
system.switch_cpus0.iq.issued_per_cycle::mean     2.809055                       # Number of insts issued each cycle
system.switch_cpus0.iq.issued_per_cycle::stdev     2.591368                       # Number of insts issued each cycle
system.switch_cpus0.iq.issued_per_cycle::underflows            0      0.00%      0.00% # Number of insts issued each cycle
system.switch_cpus0.iq.issued_per_cycle::0     36710136     30.74%     30.74% # Number of insts issued each cycle
system.switch_cpus0.iq.issued_per_cycle::1     12606627     10.56%     41.29% # Number of insts issued each cycle
system.switch_cpus0.iq.issued_per_cycle::2     11842235      9.92%     51.21% # Number of insts issued each cycle
system.switch_cpus0.iq.issued_per_cycle::3     11611403      9.72%     60.93% # Number of insts issued each cycle
system.switch_cpus0.iq.issued_per_cycle::4     11615737      9.73%     70.65% # Number of insts issued each cycle
system.switch_cpus0.iq.issued_per_cycle::5     11207417      9.38%     80.04% # Number of insts issued each cycle
system.switch_cpus0.iq.issued_per_cycle::6     10491135      8.78%     88.82% # Number of insts issued each cycle
system.switch_cpus0.iq.issued_per_cycle::7      7879528      6.60%     95.42% # Number of insts issued each cycle
system.switch_cpus0.iq.issued_per_cycle::8      5471630      4.58%    100.00% # Number of insts issued each cycle
system.switch_cpus0.iq.issued_per_cycle::overflows            0      0.00%    100.00% # Number of insts issued each cycle
system.switch_cpus0.iq.issued_per_cycle::min_value            0                       # Number of insts issued each cycle
system.switch_cpus0.iq.issued_per_cycle::max_value            8                       # Number of insts issued each cycle
system.switch_cpus0.iq.issued_per_cycle::total    119435848                       # Number of insts issued each cycle
system.switch_cpus0.iq.rate                  2.806804                       # Inst issue rate
system.switch_cpus0.iq.vec_alu_accesses             0                       # Number of vector alu accesses
system.switch_cpus0.iq.vec_inst_queue_reads            0                       # Number of vector instruction queue reads
system.switch_cpus0.iq.vec_inst_queue_wakeup_accesses            0                       # Number of vector instruction queue wakeup accesses
system.switch_cpus0.iq.vec_inst_queue_writes            0                       # Number of vector instruction queue writes
system.switch_cpus0.memDep0.conflictingLoads      3469773                       # Number of conflicting loads.
system.switch_cpus0.memDep0.conflictingStores      1971238                       # Number of conflicting stores.
system.switch_cpus0.memDep0.insertedLoads     61439613                       # Number of loads inserted to the mem dependence unit.
system.switch_cpus0.memDep0.insertedStores     20013965                       # Number of stores inserted to the mem dependence unit.
system.switch_cpus0.misc_regfile_reads      128729873                       # number of misc regfile reads
system.switch_cpus0.misc_regfile_writes             1                       # number of misc regfile writes
system.switch_cpus0.numCycles               119531619                       # number of cpu cycles simulated
system.switch_cpus0.numWorkItemsCompleted            0                       # number of work items this cpu completed
system.switch_cpus0.numWorkItemsStarted             0                       # number of work items this cpu started
system.switch_cpus0.timesIdled                    360                       # Number of times that the entire CPU went into an idle state and unscheduled itself
system.switch_cpus1.cc_regfile_reads        205829909                       # number of cc regfile reads
system.switch_cpus1.cc_regfile_writes       210901160                       # number of cc regfile writes
system.switch_cpus1.committedInsts          215760663                       # Number of Instructions Simulated
system.switch_cpus1.committedOps            422695174                       # Number of Ops (including micro ops) Simulated
system.switch_cpus1.cpi                      0.554001                       # CPI: Cycles Per Instruction
system.switch_cpus1.cpi_total                0.554001                       # CPI: Total CPI of All Threads
system.switch_cpus1.fp_regfile_reads             6894                       # number of floating regfile reads
system.switch_cpus1.fp_regfile_writes            6986                       # number of floating regfile writes
system.switch_cpus1.idleCycles                 232838                       # Total number of cycles that the CPU has spent unscheduled due to idling
system.switch_cpus1.iew.branchMispredicts      2450625                       # Number of branch mispredicts detected at execute
system.switch_cpus1.iew.exec_branches        40340201                       # Number of branches executed
system.switch_cpus1.iew.exec_nop                    0                       # number of nop insts executed
system.switch_cpus1.iew.exec_rate            4.208344                       # Inst execution rate
system.switch_cpus1.iew.exec_refs           146448000                       # number of memory reference insts executed
system.switch_cpus1.iew.exec_stores          39827511                       # Number of stores executed
system.switch_cpus1.iew.exec_swp                    0                       # number of swp insts executed
system.switch_cpus1.iew.iewBlockCycles       14591620                       # Number of cycles IEW is blocking
system.switch_cpus1.iew.iewDispLoadInsts    116043160                       # Number of dispatched load instructions
system.switch_cpus1.iew.iewDispNonSpecInsts            0                       # Number of dispatched non-speculative instructions
system.switch_cpus1.iew.iewDispSquashedInsts        10693                       # Number of squashed instructions skipped by dispatch
system.switch_cpus1.iew.iewDispStoreInsts     46392001                       # Number of dispatched store instructions
system.switch_cpus1.iew.iewDispatchedInsts    546683503                       # Number of instructions dispatched to IQ
system.switch_cpus1.iew.iewExecLoadInsts    106620489                       # Number of load instructions executed
system.switch_cpus1.iew.iewExecSquashedInsts      6777198                       # Number of squashed instructions skipped in execute
system.switch_cpus1.iew.iewExecutedInsts    503030206                       # Number of executed instructions
system.switch_cpus1.iew.iewIQFullEvents            39                       # Number of times the IQ has become full, causing a stall
system.switch_cpus1.iew.iewIdleCycles               0                       # Number of cycles IEW is idle
system.switch_cpus1.iew.iewLSQFullEvents         3544                       # Number of times the LSQ has become full, causing a stall
system.switch_cpus1.iew.iewSquashCycles       1999618                       # Number of cycles IEW is squashing
system.switch_cpus1.iew.iewUnblockCycles         3593                       # Number of cycles IEW is unblocking
system.switch_cpus1.iew.memOrderViolationEvents        34729                       # Number of memory order violations
system.switch_cpus1.iew.predictedNotTakenIncorrect      1220478                       # Number of branches that were predicted not taken incorrectly
system.switch_cpus1.iew.predictedTakenIncorrect      1230147                       # Number of branches that were predicted taken incorrectly
system.switch_cpus1.iew.wb_consumers        564855728                       # num instructions consuming a value
system.switch_cpus1.iew.wb_count            499897700                       # cumulative count of insts written-back
system.switch_cpus1.iew.wb_fanout            0.668553                       # average fanout of values written-back
system.switch_cpus1.iew.wb_producers        377636105                       # num instructions producing a value
system.switch_cpus1.iew.wb_rate              4.182138                       # insts written-back per cycle
system.switch_cpus1.iew.wb_sent             501987269                       # cumulative count of insts sent to commit
system.switch_cpus1.int_regfile_reads       726816444                       # number of integer regfile reads
system.switch_cpus1.int_regfile_writes      421924474                       # number of integer regfile writes
system.switch_cpus1.ipc                      1.805051                       # IPC: Instructions Per Cycle
system.switch_cpus1.ipc_total                1.805051                       # IPC: Total IPC of All Threads
system.switch_cpus1.iq.FU_type_0::No_OpClass      1111285      0.22%      0.22% # Type of FU issued
system.switch_cpus1.iq.FU_type_0::IntAlu    355950316     69.82%     70.04% # Type of FU issued
system.switch_cpus1.iq.FU_type_0::IntMult      3015957      0.59%     70.63% # Type of FU issued
system.switch_cpus1.iq.FU_type_0::IntDiv        32116      0.01%     70.64% # Type of FU issued
system.switch_cpus1.iq.FU_type_0::FloatAdd            0      0.00%     70.64% # Type of FU issued
system.switch_cpus1.iq.FU_type_0::FloatCmp            0      0.00%     70.64% # Type of FU issued
system.switch_cpus1.iq.FU_type_0::FloatCvt            0      0.00%     70.64% # Type of FU issued
system.switch_cpus1.iq.FU_type_0::FloatMult            0      0.00%     70.64% # Type of FU issued
system.switch_cpus1.iq.FU_type_0::FloatMultAcc            0      0.00%     70.64% # Type of FU issued
system.switch_cpus1.iq.FU_type_0::FloatDiv            0      0.00%     70.64% # Type of FU issued
system.switch_cpus1.iq.FU_type_0::FloatMisc            0      0.00%     70.64% # Type of FU issued
system.switch_cpus1.iq.FU_type_0::FloatSqrt            0      0.00%     70.64% # Type of FU issued
system.switch_cpus1.iq.FU_type_0::SimdAdd            0      0.00%     70.64% # Type of FU issued
system.switch_cpus1.iq.FU_type_0::SimdAddAcc            0      0.00%     70.64% # Type of FU issued
system.switch_cpus1.iq.FU_type_0::SimdAlu            0      0.00%     70.64% # Type of FU issued
system.switch_cpus1.iq.FU_type_0::SimdCmp            0      0.00%     70.64% # Type of FU issued
system.switch_cpus1.iq.FU_type_0::SimdCvt            0      0.00%     70.64% # Type of FU issued
system.switch_cpus1.iq.FU_type_0::SimdMisc            0      0.00%     70.64% # Type of FU issued
system.switch_cpus1.iq.FU_type_0::SimdMult            0      0.00%     70.64% # Type of FU issued
system.switch_cpus1.iq.FU_type_0::SimdMultAcc            0      0.00%     70.64% # Type of FU issued
system.switch_cpus1.iq.FU_type_0::SimdShift            0      0.00%     70.64% # Type of FU issued
system.switch_cpus1.iq.FU_type_0::SimdShiftAcc            0      0.00%     70.64% # Type of FU issued
system.switch_cpus1.iq.FU_type_0::SimdDiv            0      0.00%     70.64% # Type of FU issued
system.switch_cpus1.iq.FU_type_0::SimdSqrt            0      0.00%     70.64% # Type of FU issued
system.switch_cpus1.iq.FU_type_0::SimdFloatAdd            0      0.00%     70.64% # Type of FU issued
system.switch_cpus1.iq.FU_type_0::SimdFloatAlu            0      0.00%     70.64% # Type of FU issued
system.switch_cpus1.iq.FU_type_0::SimdFloatCmp            0      0.00%     70.64% # Type of FU issued
system.switch_cpus1.iq.FU_type_0::SimdFloatCvt            0      0.00%     70.64% # Type of FU issued
system.switch_cpus1.iq.FU_type_0::SimdFloatDiv            0      0.00%     70.64% # Type of FU issued
system.switch_cpus1.iq.FU_type_0::SimdFloatMisc            0      0.00%     70.64% # Type of FU issued
system.switch_cpus1.iq.FU_type_0::SimdFloatMult            0      0.00%     70.64% # Type of FU issued
system.switch_cpus1.iq.FU_type_0::SimdFloatMultAcc            0      0.00%     70.64% # Type of FU issued
system.switch_cpus1.iq.FU_type_0::SimdFloatSqrt            0      0.00%     70.64% # Type of FU issued
system.switch_cpus1.iq.FU_type_0::SimdReduceAdd            0      0.00%     70.64% # Type of FU issued
system.switch_cpus1.iq.FU_type_0::SimdReduceAlu            0      0.00%     70.64% # Type of FU issued
system.switch_cpus1.iq.FU_type_0::SimdReduceCmp            0      0.00%     70.64% # Type of FU issued
system.switch_cpus1.iq.FU_type_0::SimdFloatReduceAdd            0      0.00%     70.64% # Type of FU issued
system.switch_cpus1.iq.FU_type_0::SimdFloatReduceCmp            0      0.00%     70.64% # Type of FU issued
[...]
system.switch_cpus3.commit.numCommittedDist::stdev     3.095414                       # Number of insts commited each cycle
system.switch_cpus3.commit.numCommittedDist::underflows            0      0.00%      0.00% # Number of insts commited each cycle
system.switch_cpus3.commit.numCommittedDist::0     82408342     68.99%     68.99% # Number of insts commited each cycle
system.switch_cpus3.commit.numCommittedDist::1      6344091      5.31%     74.31% # Number of insts commited each cycle
system.switch_cpus3.commit.numCommittedDist::2      2284179      1.91%     76.22% # Number of insts commited each cycle
system.switch_cpus3.commit.numCommittedDist::3      2765697      2.32%     78.53% # Number of insts commited each cycle
system.switch_cpus3.commit.numCommittedDist::4      1994273      1.67%     80.20% # Number of insts commited each cycle
system.switch_cpus3.commit.numCommittedDist::5       883531      0.74%     80.94% # Number of insts commited each cycle
system.switch_cpus3.commit.numCommittedDist::6       418737      0.35%     81.29% # Number of insts commited each cycle
system.switch_cpus3.commit.numCommittedDist::7      1363330      1.14%     82.44% # Number of insts commited each cycle
system.switch_cpus3.commit.numCommittedDist::8     20979627     17.56%    100.00% # Number of insts commited each cycle
system.switch_cpus3.commit.numCommittedDist::overflows            0      0.00%    100.00% # Number of insts commited each cycle
system.switch_cpus3.commit.numCommittedDist::min_value            0                       # Number of insts commited each cycle
system.switch_cpus3.commit.numCommittedDist::max_value            8                       # Number of insts commited each cycle
system.switch_cpus3.commit.numCommittedDist::total    119441807                       # Number of insts commited each cycle
system.switch_cpus3.commit.instsCommitted    128418944                       # Number of instructions committed
system.switch_cpus3.commit.opsCommitted     211497035                       # Number of ops (including micro ops) committed
system.switch_cpus3.commit.memRefs           47365897                       # Number of memory references committed
system.switch_cpus3.commit.loads             33369301                       # Number of loads committed
system.switch_cpus3.commit.amos                     0                       # Number of atomic instructions committed
system.switch_cpus3.commit.membars                  0                       # Number of memory barriers committed
system.switch_cpus3.commit.branches          15737001                       # Number of branches committed
system.switch_cpus3.commit.vector                   0                       # Number of committed Vector instructions.
system.switch_cpus3.commit.floating          90628788                       # Number of committed floating point instructions.
system.switch_cpus3.commit.integer          151751649                       # Number of committed integer instructions.
system.switch_cpus3.commit.functionCalls      1180161                       # Number of function calls committed.
system.switch_cpus3.commit.committedInstType_0::No_OpClass         8833      0.00%      0.00% # Class of committed instruction
system.switch_cpus3.commit.committedInstType_0::IntAlu    118490797     56.02%     56.03% # Class of committed instruction
system.switch_cpus3.commit.committedInstType_0::IntMult         3743      0.00%     56.03% # Class of committed instruction
system.switch_cpus3.commit.committedInstType_0::IntDiv            0      0.00%     56.03% # Class of committed instruction
system.switch_cpus3.commit.committedInstType_0::FloatAdd      4423979      2.09%     58.12% # Class of committed instruction
system.switch_cpus3.commit.committedInstType_0::FloatCmp            0      0.00%     58.12% # Class of committed instruction
system.switch_cpus3.commit.committedInstType_0::FloatCvt            0      0.00%     58.12% # Class of committed instruction
system.switch_cpus3.commit.committedInstType_0::FloatMult            0      0.00%     58.12% # Class of committed instruction
system.switch_cpus3.commit.committedInstType_0::FloatMultAcc            0      0.00%     58.12% # Class of committed instruction
system.switch_cpus3.commit.committedInstType_0::FloatDiv            0      0.00%     58.12% # Class of committed instruction
system.switch_cpus3.commit.committedInstType_0::FloatMisc            0      0.00%     58.12% # Class of committed instruction
system.switch_cpus3.commit.committedInstType_0::FloatSqrt            0      0.00%     58.12% # Class of committed instruction
system.switch_cpus3.commit.committedInstType_0::SimdAdd            0      0.00%     58.12% # Class of committed instruction
system.switch_cpus3.commit.committedInstType_0::SimdAddAcc            0      0.00%     58.12% # Class of committed instruction
system.switch_cpus3.commit.committedInstType_0::SimdAlu      4879478      2.31%     60.43% # Class of committed instruction
system.switch_cpus3.commit.committedInstType_0::SimdCmp            0      0.00%     60.43% # Class of committed instruction
system.switch_cpus3.commit.committedInstType_0::SimdCvt            0      0.00%     60.43% # Class of committed instruction
system.switch_cpus3.commit.committedInstType_0::SimdMisc      2656287      1.26%     61.69% # Class of committed instruction
system.switch_cpus3.commit.committedInstType_0::SimdMult            0      0.00%     61.69% # Class of committed instruction
system.switch_cpus3.commit.committedInstType_0::SimdMultAcc            0      0.00%     61.69% # Class of committed instruction
system.switch_cpus3.commit.committedInstType_0::SimdShift            0      0.00%     61.69% # Class of committed instruction
system.switch_cpus3.commit.committedInstType_0::SimdShiftAcc            0      0.00%     61.69% # Class of committed instruction
system.switch_cpus3.commit.committedInstType_0::SimdDiv            0      0.00%     61.69% # Class of committed instruction
system.switch_cpus3.commit.committedInstType_0::SimdSqrt            0      0.00%     61.69% # Class of committed instruction
system.switch_cpus3.commit.committedInstType_0::SimdFloatAdd     13826312      6.54%     68.22% # Class of committed instruction
system.switch_cpus3.commit.committedInstType_0::SimdFloatAlu            0      0.00%     68.22% # Class of committed instruction
system.switch_cpus3.commit.committedInstType_0::SimdFloatCmp       376832      0.18%     68.40% # Class of committed instruction
system.switch_cpus3.commit.committedInstType_0::SimdFloatCvt      3194880      1.51%     69.91% # Class of committed instruction
system.switch_cpus3.commit.committedInstType_0::SimdFloatDiv      2604023      1.23%     71.14% # Class of committed instruction
system.switch_cpus3.commit.committedInstType_0::SimdFloatMisc            0      0.00%     71.14% # Class of committed instruction
system.switch_cpus3.commit.committedInstType_0::SimdFloatMult     13256372      6.27%     77.41% # Class of committed instruction
system.switch_cpus3.commit.committedInstType_0::SimdFloatMultAcc            0      0.00%     77.41% # Class of committed instruction
system.switch_cpus3.commit.committedInstType_0::SimdFloatSqrt       409602      0.19%     77.60% # Class of committed instruction
system.switch_cpus3.commit.committedInstType_0::SimdReduceAdd            0      0.00%     77.60% # Class of committed instruction
system.switch_cpus3.commit.committedInstType_0::SimdReduceAlu            0      0.00%     77.60% # Class of committed instruction
system.switch_cpus3.commit.committedInstType_0::SimdReduceCmp            0      0.00%     77.60% # Class of committed instruction
system.switch_cpus3.commit.committedInstType_0::SimdFloatReduceAdd            0      0.00%     77.60% # Class of committed instruction
system.switch_cpus3.commit.committedInstType_0::SimdFloatReduceCmp            0      0.00%     77.60% # Class of committed instruction
system.switch_cpus3.commit.committedInstType_0::SimdAes            0      0.00%     77.60% # Class of committed instruction
system.switch_cpus3.commit.committedInstType_0::SimdAesMix            0      0.00%     77.60% # Class of committed instruction
system.switch_cpus3.commit.committedInstType_0::SimdSha1Hash            0      0.00%     77.60% # Class of committed instruction
system.switch_cpus3.commit.committedInstType_0::SimdSha1Hash2            0      0.00%     77.60% # Class of committed instruction
system.switch_cpus3.commit.committedInstType_0::SimdSha256Hash            0      0.00%     77.60% # Class of committed instruction
system.switch_cpus3.commit.committedInstType_0::SimdSha256Hash2            0      0.00%     77.60% # Class of committed instruction
system.switch_cpus3.commit.committedInstType_0::SimdShaSigma2            0      0.00%     77.60% # Class of committed instruction
system.switch_cpus3.commit.committedInstType_0::SimdShaSigma3            0      0.00%     77.60% # Class of committed instruction
system.switch_cpus3.commit.committedInstType_0::SimdPredAlu            0      0.00%     77.60% # Class of committed instruction
system.switch_cpus3.commit.committedInstType_0::MemRead     12854820      6.08%     83.68% # Class of committed instruction
system.switch_cpus3.commit.committedInstType_0::MemWrite      6272113      2.97%     86.65% # Class of committed instruction
system.switch_cpus3.commit.committedInstType_0::FloatMemRead     20514481      9.70%     96.35% # Class of committed instruction
system.switch_cpus3.commit.committedInstType_0::FloatMemWrite      7724483      3.65%    100.00% # Class of committed instruction
system.switch_cpus3.commit.committedInstType_0::IprAccess            0      0.00%    100.00% # Class of committed instruction
system.switch_cpus3.commit.committedInstType_0::InstPrefetch            0      0.00%    100.00% # Class of committed instruction
system.switch_cpus3.commit.committedInstType_0::total    211497035                       # Class of committed instruction
system.switch_cpus3.commit.commitEligibleSamples     20979627                       # number cycles where commit BW limit reached
system.switch_cpus3.decode.idleCycles         2150869                       # Number of cycles decode is idle
system.switch_cpus3.decode.blockedCycles     85625048                       # Number of cycles decode is blocked
system.switch_cpus3.decode.runCycles         29098322                       # Number of cycles decode is running
system.switch_cpus3.decode.unblockCycles      2603302                       # Number of cycles decode is unblocking
system.switch_cpus3.decode.squashCycles         11906                       # Number of cycles decode is squashing
system.switch_cpus3.decode.branchResolved      6144445                       # Number of times decode resolved a  branch
system.switch_cpus3.decode.branchMispred          107                       # Number of times decode detected a branch misprediction
system.switch_cpus3.decode.decodedInsts     211996179                       # Number of instructions handled by decode
system.switch_cpus3.decode.squashedInsts          529                       # Number of squashed instructions handled by decode
system.switch_cpus3.dtb.rdAccesses           33426305                       # TLB accesses on read requests
system.switch_cpus3.dtb.wrAccesses           14004775                       # TLB accesses on write requests
system.switch_cpus3.dtb.rdMisses                37047                       # TLB misses on read requests
system.switch_cpus3.dtb.wrMisses                 7235                       # TLB misses on write requests
system.switch_cpus3.dtb.walker.power_state.pwrStateResidencyTicks::UNDEFINED 15691061116782                       # Cumulative time (in ticks) in various power states
system.switch_cpus3.fetch.icacheStallCycles        38056                       # Number of cycles fetch is stalled on an Icache miss
system.switch_cpus3.fetch.insts             128964427                       # Number of instructions fetch has processed
system.switch_cpus3.fetch.branches           15777824                       # Number of branches that fetch encountered
system.switch_cpus3.fetch.predictedBranches      8815226                       # Number of branches that fetch has predicted taken
system.switch_cpus3.fetch.cycles            119439391                       # Number of cycles fetch has run and was not squashing or blocked
system.switch_cpus3.fetch.squashCycles          24022                       # Number of cycles fetch has spent squashing
system.switch_cpus3.fetch.cacheLines         16149671                       # Number of cache lines fetched
system.switch_cpus3.fetch.icacheSquashes          181                       # Number of outstanding Icache misses that were squashed
system.switch_cpus3.fetch.nisnDist::samples    119489458                       # Number of instructions fetched each cycle (Total)
system.switch_cpus3.fetch.nisnDist::mean     1.776358                       # Number of instructions fetched each cycle (Total)
system.switch_cpus3.fetch.nisnDist::stdev     3.104026                       # Number of instructions fetched each cycle (Total)
system.switch_cpus3.fetch.nisnDist::underflows            0      0.00%      0.00% # Number of instructions fetched each cycle (Total)
system.switch_cpus3.fetch.nisnDist::0        84447930     70.67%     70.67% # Number of instructions fetched each cycle (Total)
system.switch_cpus3.fetch.nisnDist::1         3876279      3.24%     73.92% # Number of instructions fetched each cycle (Total)
system.switch_cpus3.fetch.nisnDist::2         1172073      0.98%     74.90% # Number of instructions fetched each cycle (Total)
system.switch_cpus3.fetch.nisnDist::3         4191156      3.51%     78.41% # Number of instructions fetched each cycle (Total)
system.switch_cpus3.fetch.nisnDist::4         1018457      0.85%     79.26% # Number of instructions fetched each cycle (Total)
system.switch_cpus3.fetch.nisnDist::5         1741906      1.46%     80.72% # Number of instructions fetched each cycle (Total)
system.switch_cpus3.fetch.nisnDist::6         1172207      0.98%     81.70% # Number of instructions fetched each cycle (Total)
system.switch_cpus3.fetch.nisnDist::7         1310086      1.10%     82.79% # Number of instructions fetched each cycle (Total)
system.switch_cpus3.fetch.nisnDist::8        20559364     17.21%    100.00% # Number of instructions fetched each cycle (Total)
system.switch_cpus3.fetch.nisnDist::overflows            0      0.00%    100.00% # Number of instructions fetched each cycle (Total)
system.switch_cpus3.fetch.nisnDist::min_value            0                       # Number of instructions fetched each cycle (Total)
system.switch_cpus3.fetch.nisnDist::max_value            8                       # Number of instructions fetched each cycle (Total)
system.switch_cpus3.fetch.nisnDist::total    119489458                       # Number of instructions fetched each cycle (Total)
system.switch_cpus3.fetch.branchRate         0.131997                       # Number of branch fetches per cycle
system.switch_cpus3.fetch.rate               1.078915                       # Number of inst fetches per cycle
system.switch_cpus3.itb.rdAccesses                  0                       # TLB accesses on read requests
system.switch_cpus3.itb.wrAccesses           16149671                       # TLB accesses on write requests
system.switch_cpus3.itb.rdMisses                    0                       # TLB misses on read requests
system.switch_cpus3.itb.wrMisses                   21                       # TLB misses on write requests
system.switch_cpus3.itb.walker.power_state.pwrStateResidencyTicks::UNDEFINED 15691061116782                       # Cumulative time (in ticks) in various power states
system.switch_cpus3.lsq0.forwLoads            2414730                       # Number of loads that had data forwarded from stores
system.switch_cpus3.lsq0.squashedLoads          80226                       # Number of loads squashed
system.switch_cpus3.lsq0.ignoredResponses           40                       # Number of memory responses ignored because the instruction is squashed
system.switch_cpus3.lsq0.memOrderViolation          811                       # Number of memory ordering violations
system.switch_cpus3.lsq0.squashedStores         33827                       # Number of stores squashed
system.switch_cpus3.lsq0.rescheduledLoads            0                       # Number of loads that were rescheduled
system.switch_cpus3.lsq0.blockedByCache             5                       # Number of times an access to memory failed due to the cache being blocked
system.switch_cpus3.power_state.pwrStateResidencyTicks::OFF  39804039450                       # Cumulative time (in ticks) in various power states
system.switch_cpus3.rename.squashCycles         11906                       # Number of cycles rename is squashing
system.switch_cpus3.rename.idleCycles         3285405                       # Number of cycles rename is idle
system.switch_cpus3.rename.blockCycles       34725422                       # Number of cycles rename is blocking
system.switch_cpus3.rename.serializeStallCycles            0                       # count of cycles rename stalledfor serializing inst
system.switch_cpus3.rename.runCycles         30511117                       # Number of cycles rename is running
system.switch_cpus3.rename.unblockCycles     50955597                       # Number of cycles rename is unblocking
system.switch_cpus3.rename.renamedInsts     211913185                       # Number of instructions processed by rename
system.switch_cpus3.rename.ROBFullEvents      1139175                       # Number of times rename has blocked due to ROB full
system.switch_cpus3.rename.IQFullEvents       3081848                       # Number of times rename has blocked due to IQ full
system.switch_cpus3.rename.LQFullEvents      18650914                       # Number of times rename has blocked due to LQ full
system.switch_cpus3.rename.SQFullEvents      29539726                       # Number of times rename has blocked due to SQ full
system.switch_cpus3.rename.renamedOperands    233099341                       # Number of destination operands rename has renamed
system.switch_cpus3.rename.lookups          515723206                       # Number of register rename lookups that rename has made
system.switch_cpus3.rename.intLookups       208539745                       # Number of integer rename lookups
system.switch_cpus3.rename.fpLookups        151340902                       # Number of floating rename lookups
system.switch_cpus3.rename.committedMaps    232632887                       # Number of HB maps that are committed
system.switch_cpus3.rename.undoneMaps          466454                       # Number of HB maps that are undone due to squashing
system.switch_cpus3.rename.serializing              0                       # count of serializing insts renamed
system.switch_cpus3.rename.tempSerializing            0                       # count of temporary serializing insts renamed
system.switch_cpus3.rename.skidInsts         13967225                       # count of insts added to the skid buffer
system.switch_cpus3.rob.reads               310289719                       # The number of ROB reads
system.switch_cpus3.rob.writes              423702824                       # The number of ROB writes
system.switch_cpus3.thread0.numInsts        128418944                       # Number of Instructions committed
system.switch_cpus3.thread0.numOps          211497035                       # Number of Ops committed
system.switch_cpus3.thread0.numMemRefs              0                       # Number of Memory References
system.voltage_domain.voltage                       1                       # Voltage in Volts

---------- End Simulation Statistics   ----------
