
---------- Begin Simulation Statistics ----------
final_tick                               13973759565687                       # Number of ticks from beginning of simulation (restored from checkpoints and never reset)
host_inst_rate                                  61336                       # Simulator instruction rate (inst/s)
host_mem_usage                               17318604                       # Number of bytes of host memory used
host_op_rate                                    86412                       # Simulator op (including micro ops) rate (op/s)
host_seconds                                  8365.03                       # Real time elapsed on the host
host_tick_rate                                3419124                       # Simulator tick rate (ticks/s)
sim_freq                                 1000000000000                       # Frequency of simulated ticks
sim_insts                                   513075714                       # Number of instructions simulated
sim_ops                                     722842497                       # Number of ops (including micro ops) simulated
sim_seconds                                  0.028601                       # Number of seconds simulated
sim_ticks                                 28601080956                       # Number of ticks simulated
system.cpu0.Branches                                1                       # Number of branches fetched
system.cpu0.committedInsts                         16                       # Number of instructions committed
system.cpu0.committedOps                           21                       # Number of ops (including micro ops) committed
system.cpu0.idle_fraction                           0                       # Percentage of idle cycles
system.cpu0.l2bus.snoop_filter.hit_multi_requests          116                       # Number of requests hitting in the snoop filter with multiple (>1) holders of the requested data.
system.cpu0.l2bus.snoop_filter.hit_multi_snoops            0                       # Number of snoops hitting in the snoop filter with multiple (>1) holders of the requested data.
system.cpu0.l2bus.snoop_filter.hit_single_requests      1274917                       # Number of requests hitting in the snoop filter with a single holder of the requested data.
system.cpu0.l2bus.snoop_filter.hit_single_snoops          385                       # Number of snoops hitting in the snoop filter with a single holder of the requested data.
system.cpu0.l2bus.snoop_filter.tot_requests      2543682                       # Total number of requests made to the snoop filter.
system.cpu0.l2bus.snoop_filter.tot_snoops          385                       # Total number of snoops made to the snoop filter.
system.cpu0.mmucache.mmubus.snoop_filter.hit_multi_requests            0                       # Number of requests hitting in the snoop filter with multiple (>1) holders of the requested data.
system.cpu0.mmucache.mmubus.snoop_filter.hit_multi_snoops            0                       # Number of snoops hitting in the snoop filter with multiple (>1) holders of the requested data.
system.cpu0.mmucache.mmubus.snoop_filter.hit_single_requests            0                       # Number of requests hitting in the snoop filter with a single holder of the requested data.
system.cpu0.mmucache.mmubus.snoop_filter.hit_single_snoops            0                       # Number of snoops hitting in the snoop filter with a single holder of the requested data.
system.cpu0.mmucache.mmubus.snoop_filter.tot_requests            0                       # Total number of requests made to the snoop filter.
system.cpu0.mmucache.mmubus.snoop_filter.tot_snoops            0                       # Total number of snoops made to the snoop filter.
system.cpu0.not_idle_fraction                       1                       # Percentage of non-idle cycles
system.cpu0.numCycles                              30                       # number of cpu cycles simulated
system.cpu0.numWorkItemsCompleted                   0                       # number of work items this cpu completed
system.cpu0.numWorkItemsStarted                     0                       # number of work items this cpu started
system.cpu0.num_busy_cycles                        30                       # Number of busy cycles
system.cpu0.num_cc_register_reads                   6                       # number of times the CC registers were read
system.cpu0.num_cc_register_writes                  6                       # number of times the CC registers were written
system.cpu0.num_conditional_control_insts            1                       # number of instructions that are conditional controls
system.cpu0.num_fp_alu_accesses                    10                       # Number of float alu accesses
system.cpu0.num_fp_insts                           10                       # number of float instructions
system.cpu0.num_fp_register_reads                  10                       # number of times the floating registers were read
system.cpu0.num_fp_register_writes                  6                       # number of times the floating registers were written
system.cpu0.num_func_calls                          0                       # number of times a function call or return occured
system.cpu0.num_idle_cycles                         0                       # Number of idle cycles
system.cpu0.num_int_alu_accesses                   19                       # Number of integer alu accesses
system.cpu0.num_int_insts                          19                       # number of integer instructions
system.cpu0.num_int_register_reads                 42                       # number of times the integer registers were read
system.cpu0.num_int_register_writes                10                       # number of times the integer registers were written
system.cpu0.num_load_insts                          6                       # Number of load instructions
system.cpu0.num_mem_refs                           10                       # number of memory refs
system.cpu0.num_store_insts                         4                       # Number of store instructions
system.cpu0.num_vec_alu_accesses                    0                       # Number of vector alu accesses
system.cpu0.num_vec_insts                           0                       # number of vector instructions
system.cpu0.num_vec_register_reads                  0                       # number of times the vector registers were read
system.cpu0.num_vec_register_writes                 0                       # number of times the vector registers were written
system.cpu0.op_class::No_OpClass                    0      0.00%      0.00% # Class of executed instruction
system.cpu0.op_class::IntAlu                        9     42.86%     42.86% # Class of executed instruction
system.cpu0.op_class::IntMult                       0      0.00%     42.86% # Class of executed instruction
system.cpu0.op_class::IntDiv                        0      0.00%     42.86% # Class of executed instruction
system.cpu0.op_class::FloatAdd                      0      0.00%     42.86% # Class of executed instruction
system.cpu0.op_class::FloatCmp                      0      0.00%     42.86% # Class of executed instruction
system.cpu0.op_class::FloatCvt                      0      0.00%     42.86% # Class of executed instruction
system.cpu0.op_class::FloatMult                     0      0.00%     42.86% # Class of executed instruction
system.cpu0.op_class::FloatMultAcc                  0      0.00%     42.86% # Class of executed instruction
system.cpu0.op_class::FloatDiv                      0      0.00%     42.86% # Class of executed instruction
system.cpu0.op_class::FloatMisc                     0      0.00%     42.86% # Class of executed instruction
system.cpu0.op_class::FloatSqrt                     0      0.00%     42.86% # Class of executed instruction
system.cpu0.op_class::SimdAdd                       0      0.00%     42.86% # Class of executed instruction
system.cpu0.op_class::SimdAddAcc                    0      0.00%     42.86% # Class of executed instruction
system.cpu0.op_class::SimdAlu                       0      0.00%     42.86% # Class of executed instruction
system.cpu0.op_class::SimdCmp                       0      0.00%     42.86% # Class of executed instruction
system.cpu0.op_class::SimdCvt                       0      0.00%     42.86% # Class of executed instruction
system.cpu0.op_class::SimdMisc                      0      0.00%     42.86% # Class of executed instruction
system.cpu0.op_class::SimdMult                      0      0.00%     42.86% # Class of executed instruction
system.cpu0.op_class::SimdMultAcc                   0      0.00%     42.86% # Class of executed instruction
system.cpu0.op_class::SimdShift                     0      0.00%     42.86% # Class of executed instruction
system.cpu0.op_class::SimdShiftAcc                  0      0.00%     42.86% # Class of executed instruction
system.cpu0.op_class::SimdDiv                       0      0.00%     42.86% # Class of executed instruction
system.cpu0.op_class::SimdSqrt                      0      0.00%     42.86% # Class of executed instruction
system.cpu0.op_class::SimdFloatAdd                  2      9.52%     52.38% # Class of executed instruction
system.cpu0.op_class::SimdFloatAlu                  0      0.00%     52.38% # Class of executed instruction
system.cpu0.op_class::SimdFloatCmp                  0      0.00%     52.38% # Class of executed instruction
system.cpu0.op_class::SimdFloatCvt                  0      0.00%     52.38% # Class of executed instruction
system.cpu0.op_class::SimdFloatDiv                  0      0.00%     52.38% # Class of executed instruction
system.cpu0.op_class::SimdFloatMisc                 0      0.00%     52.38% # Class of executed instruction
system.cpu0.op_class::SimdFloatMult                 0      0.00%     52.38% # Class of executed instruction
system.cpu0.op_class::SimdFloatMultAcc              0      0.00%     52.38% # Class of executed instruction
system.cpu0.op_class::SimdFloatSqrt                 0      0.00%     52.38% # Class of executed instruction
system.cpu0.op_class::SimdReduceAdd                 0      0.00%     52.38% # Class of executed instruction
system.cpu0.op_class::SimdReduceAlu                 0      0.00%     52.38% # Class of executed instruction
system.cpu0.op_class::SimdReduceCmp                 0      0.00%     52.38% # Class of executed instruction
system.cpu0.op_class::SimdFloatReduceAdd            0      0.00%     52.38% # Class of executed instruction
system.cpu0.op_class::SimdFloatReduceCmp            0      0.00%     52.38% # Class of executed instruction
system.cpu0.op_class::SimdAes                       0      0.00%     52.38% # Class of executed instruction
system.cpu0.op_class::SimdAesMix                    0      0.00%     52.38% # Class of executed instruction
system.cpu0.op_class::SimdSha1Hash                  0      0.00%     52.38% # Class of executed instruction
system.cpu0.op_class::SimdSha1Hash2                 0      0.00%     52.38% # Class of executed instruction
system.cpu0.op_class::SimdSha256Hash                0      0.00%     52.38% # Class of executed instruction
system.cpu0.op_class::SimdSha256Hash2               0      0.00%     52.38% # Class of executed instruction
system.cpu0.op_class::SimdShaSigma2                 0      0.00%     52.38% # Class of executed instruction
system.cpu0.op_class::SimdShaSigma3                 0      0.00%     52.38% # Class of executed instruction
system.cpu0.op_class::SimdPredAlu                   0      0.00%     52.38% # Class of executed instruction
system.cpu0.op_class::MemRead                       2      9.52%     61.90% # Class of executed instruction
system.cpu0.op_class::MemWrite                      0      0.00%     61.90% # Class of executed instruction
system.cpu0.op_class::FloatMemRead                  4     19.05%     80.95% # Class of executed instruction
system.cpu0.op_class::FloatMemWrite                 4     19.05%    100.00% # Class of executed instruction
system.cpu0.op_class::IprAccess                     0      0.00%    100.00% # Class of executed instruction
system.cpu0.op_class::InstPrefetch                  0      0.00%    100.00% # Class of executed instruction
system.cpu0.op_class::total                        21                       # Class of executed instruction
system.cpu0.workload.numSyscalls                    0                       # Number of system calls
system.cpu1.committedInsts                         21                       # Number of instructions committed
system.cpu1.committedOps                           24                       # Number of ops (including micro ops) committed
system.cpu1.idle_fraction                           0                       # Percentage of idle cycles
system.cpu1.l2bus.snoop_filter.hit_multi_requests          537                       # Number of requests hitting in the snoop filter with multiple (>1) holders of the requested data.
system.cpu1.l2bus.snoop_filter.hit_multi_snoops            1                       # Number of snoops hitting in the snoop filter with multiple (>1) holders of the requested data.
system.cpu1.l2bus.snoop_filter.hit_single_requests       283627                       # Number of requests hitting in the snoop filter with a single holder of the requested data.
system.cpu1.l2bus.snoop_filter.hit_single_snoops         1427                       # Number of snoops hitting in the snoop filter with a single holder of the requested data.
system.cpu1.l2bus.snoop_filter.tot_requests       567819                       # Total number of requests made to the snoop filter.
system.cpu1.l2bus.snoop_filter.tot_snoops         1428                       # Total number of snoops made to the snoop filter.
system.cpu1.mmucache.mmubus.snoop_filter.hit_multi_requests            0                       # Number of requests hitting in the snoop filter with multiple (>1) holders of the requested data.
system.cpu1.mmucache.mmubus.snoop_filter.hit_multi_snoops            0                       # Number of snoops hitting in the snoop filter with multiple (>1) holders of the requested data.
system.cpu1.mmucache.mmubus.snoop_filter.hit_single_requests            0                       # Number of requests hitting in the snoop filter with a single holder of the requested data.
system.cpu1.mmucache.mmubus.snoop_filter.hit_single_snoops            0                       # Number of snoops hitting in the snoop filter with a single holder of the requested data.
system.cpu1.mmucache.mmubus.snoop_filter.tot_requests            0                       # Total number of requests made to the snoop filter.
system.cpu1.mmucache.mmubus.snoop_filter.tot_snoops            0                       # Total number of snoops made to the snoop filter.
system.cpu1.not_idle_fraction                       1                       # Percentage of non-idle cycles
system.cpu1.numCycles                              30                       # number of cpu cycles simulated
system.cpu1.numWorkItemsCompleted                   0                       # number of work items this cpu completed
system.cpu1.numWorkItemsStarted                     0                       # number of work items this cpu started
system.cpu1.num_busy_cycles                        30                       # Number of busy cycles
system.cpu1.num_cc_register_reads                   4                       # number of times the CC registers were read
system.cpu1.num_cc_register_writes                  8                       # number of times the CC registers were written
system.cpu1.num_conditional_control_insts            0                       # number of instructions that are conditional controls
system.cpu1.num_fp_alu_accesses                     0                       # Number of float alu accesses
system.cpu1.num_fp_insts                            0                       # number of float instructions
system.cpu1.num_fp_register_reads                   0                       # number of times the floating registers were read
system.cpu1.num_fp_register_writes                  0                       # number of times the floating registers were written
system.cpu1.num_func_calls                          0                       # number of times a function call or return occured
system.cpu1.num_idle_cycles                         0                       # Number of idle cycles
system.cpu1.num_int_alu_accesses                   24                       # Number of integer alu accesses
system.cpu1.num_int_insts                          24                       # number of integer instructions
system.cpu1.num_int_register_reads                 59                       # number of times the integer registers were read
system.cpu1.num_int_register_writes                18                       # number of times the integer registers were written
system.cpu1.num_load_insts                          3                       # Number of load instructions
system.cpu1.num_mem_refs                            9                       # number of memory refs
system.cpu1.num_store_insts                         6                       # Number of store instructions
system.cpu1.num_vec_alu_accesses                    0                       # Number of vector alu accesses
system.cpu1.num_vec_insts                           0                       # number of vector instructions
system.cpu1.num_vec_register_reads                  0                       # number of times the vector registers were read
system.cpu1.num_vec_register_writes                 0                       # number of times the vector registers were written
system.cpu1.op_class::No_OpClass                    0      0.00%      0.00% # Class of executed instruction
system.cpu1.op_class::IntAlu                       15     62.50%     62.50% # Class of executed instruction
system.cpu1.op_class::IntMult                       0      0.00%     62.50% # Class of executed instruction
system.cpu1.op_class::IntDiv                        0      0.00%     62.50% # Class of executed instruction
system.cpu1.op_class::FloatAdd                      0      0.00%     62.50% # Class of executed instruction
system.cpu1.op_class::FloatCmp                      0      0.00%     62.50% # Class of executed instruction
system.cpu1.op_class::FloatCvt                      0      0.00%     62.50% # Class of executed instruction
system.cpu1.op_class::FloatMult                     0      0.00%     62.50% # Class of executed instruction
system.cpu1.op_class::FloatMultAcc                  0      0.00%     62.50% # Class of executed instruction
system.cpu1.op_class::FloatDiv                      0      0.00%     62.50% # Class of executed instruction
system.cpu1.op_class::FloatMisc                     0      0.00%     62.50% # Class of executed instruction
system.cpu1.op_class::FloatSqrt                     0      0.00%     62.50% # Class of executed instruction
system.cpu1.op_class::SimdAdd                       0      0.00%     62.50% # Class of executed instruction
system.cpu1.op_class::SimdAddAcc                    0      0.00%     62.50% # Class of executed instruction
system.cpu1.op_class::SimdAlu                       0      0.00%     62.50% # Class of executed instruction
system.cpu1.op_class::SimdCmp                       0      0.00%     62.50% # Class of executed instruction
system.cpu1.op_class::SimdCvt                       0      0.00%     62.50% # Class of executed instruction
system.cpu1.op_class::SimdMisc                      0      0.00%     62.50% # Class of executed instruction
system.cpu1.op_class::SimdMult                      0      0.00%     62.50% # Class of executed instruction
system.cpu1.op_class::SimdMultAcc                   0      0.00%     62.50% # Class of executed instruction
system.cpu1.op_class::SimdShift                     0      0.00%     62.50% # Class of executed instruction
system.cpu1.op_class::SimdShiftAcc                  0      0.00%     62.50% # Class of executed instruction
system.cpu1.op_class::SimdDiv                       0      0.00%     62.50% # Class of executed instruction
system.cpu1.op_class::SimdSqrt                      0      0.00%     62.50% # Class of executed instruction
system.cpu1.op_class::SimdFloatAdd                  0      0.00%     62.50% # Class of executed instruction
system.cpu1.op_class::SimdFloatAlu                  0      0.00%     62.50% # Class of executed instruction
system.cpu1.op_class::SimdFloatCmp                  0      0.00%     62.50% # Class of executed instruction
system.cpu1.op_class::SimdFloatCvt                  0      0.00%     62.50% # Class of executed instruction
system.cpu1.op_class::SimdFloatDiv                  0      0.00%     62.50% # Class of executed instruction
system.cpu1.op_class::SimdFloatMisc                 0      0.00%     62.50% # Class of executed instruction
system.cpu1.op_class::SimdFloatMult                 0      0.00%     62.50% # Class of executed instruction
system.cpu1.op_class::SimdFloatMultAcc              0      0.00%     62.50% # Class of executed instruction
system.cpu1.op_class::SimdFloatSqrt                 0      0.00%     62.50% # Class of executed instruction
system.cpu1.op_class::SimdReduceAdd                 0      0.00%     62.50% # Class of executed instruction
system.cpu1.op_class::SimdReduceAlu                 0      0.00%     62.50% # Class of executed instruction
system.cpu1.op_class::SimdReduceCmp                 0      0.00%     62.50% # Class of executed instruction
system.cpu1.op_class::SimdFloatReduceAdd            0      0.00%     62.50% # Class of executed instruction
system.cpu1.op_class::SimdFloatReduceCmp            0      0.00%     62.50% # Class of executed instruction
system.cpu1.op_class::SimdAes                       0      0.00%     62.50% # Class of executed instruction
system.cpu1.op_class::SimdAesMix                    0      0.00%     62.50% # Class of executed instruction
system.cpu1.op_class::SimdSha1Hash                  0      0.00%     62.50% # Class of executed instruction
system.cpu1.op_class::SimdSha1Hash2                 0      0.00%     62.50% # Class of executed instruction
system.cpu1.op_class::SimdSha256Hash                0      0.00%     62.50% # Class of executed instruction
system.cpu1.op_class::SimdSha256Hash2               0      0.00%     62.50% # Class of executed instruction
system.cpu1.op_class::SimdShaSigma2                 0      0.00%     62.50% # Class of executed instruction
system.cpu1.op_class::SimdShaSigma3                 0      0.00%     62.50% # Class of executed instruction
system.cpu1.op_class::SimdPredAlu                   0      0.00%     62.50% # Class of executed instruction
system.cpu1.op_class::MemRead                       3     12.50%     75.00% # Class of executed instruction
system.cpu1.op_class::MemWrite                      6     25.00%    100.00% # Class of executed instruction
system.cpu1.op_class::FloatMemRead                  0      0.00%    100.00% # Class of executed instruction
system.cpu1.op_class::FloatMemWrite                 0      0.00%    100.00% # Class of executed instruction
system.cpu1.op_class::IprAccess                     0      0.00%    100.00% # Class of executed instruction
system.cpu1.op_class::InstPrefetch                  0      0.00%    100.00% # Class of executed instruction
system.cpu1.op_class::total                        24                       # Class of executed instruction
system.cpu1.workload.numSyscalls                    0                       # Number of system calls
system.cpu2.Branches                                1                       # Number of branches fetched
system.cpu2.committedInsts                         15                       # Number of instructions committed
system.cpu2.committedOps                           19                       # Number of ops (including micro ops) committed
system.cpu2.idle_fraction                           0                       # Percentage of idle cycles
system.cpu2.l2bus.snoop_filter.hit_multi_requests            3                       # Number of requests hitting in the snoop filter with multiple (>1) holders of the requested data.
system.cpu2.l2bus.snoop_filter.hit_multi_snoops            0                       # Number of snoops hitting in the snoop filter with multiple (>1) holders of the requested data.
system.cpu2.l2bus.snoop_filter.hit_single_requests      7924241                       # Number of requests hitting in the snoop filter with a single holder of the requested data.
system.cpu2.l2bus.snoop_filter.hit_single_snoops        15192                       # Number of snoops hitting in the snoop filter with a single holder of the requested data.
system.cpu2.l2bus.snoop_filter.tot_requests     15849474                       # Total number of requests made to the snoop filter.
system.cpu2.l2bus.snoop_filter.tot_snoops        15192                       # Total number of snoops made to the snoop filter.
system.cpu2.mmucache.mmubus.snoop_filter.hit_multi_requests            0                       # Number of requests hitting in the snoop filter with multiple (>1) holders of the requested data.
system.cpu2.mmucache.mmubus.snoop_filter.hit_multi_snoops            0                       # Number of snoops hitting in the snoop filter with multiple (>1) holders of the requested data.
system.cpu2.mmucache.mmubus.snoop_filter.hit_single_requests            0                       # Number of requests hitting in the snoop filter with a single holder of the requested data.
system.cpu2.mmucache.mmubus.snoop_filter.hit_single_snoops            0                       # Number of snoops hitting in the snoop filter with a single holder of the requested data.
system.cpu2.mmucache.mmubus.snoop_filter.tot_requests            0                       # Total number of requests made to the snoop filter.
system.cpu2.mmucache.mmubus.snoop_filter.tot_snoops            0                       # Total number of snoops made to the snoop filter.
system.cpu2.not_idle_fraction                       1                       # Percentage of non-idle cycles
system.cpu2.numCycles                              30                       # number of cpu cycles simulated
system.cpu2.numWorkItemsCompleted                   0                       # number of work items this cpu completed
system.cpu2.numWorkItemsStarted                     0                       # number of work items this cpu started
system.cpu2.num_busy_cycles                        30                       # Number of busy cycles
system.cpu2.num_cc_register_reads                   5                       # number of times the CC registers were read
system.cpu2.num_conditional_control_insts            1                       # number of instructions that are conditional controls
system.cpu2.num_fp_alu_accesses                    10                       # Number of float alu accesses
system.cpu2.num_fp_insts                           10                       # number of float instructions
system.cpu2.num_fp_register_reads                  10                       # number of times the floating registers were read
system.cpu2.num_fp_register_writes                  3                       # number of times the floating registers were written
system.cpu2.num_func_calls                          0                       # number of times a function call or return occured
system.cpu2.num_idle_cycles                         0                       # Number of idle cycles
system.cpu2.num_int_alu_accesses                   18                       # Number of integer alu accesses
system.cpu2.num_int_insts                          18                       # number of integer instructions
system.cpu2.num_int_register_reads                 52                       # number of times the integer registers were read
system.cpu2.num_int_register_writes                 3                       # number of times the integer registers were written
system.cpu2.num_load_insts                          2                       # Number of load instructions
system.cpu2.num_mem_refs                           14                       # number of memory refs
system.cpu2.num_store_insts                        12                       # Number of store instructions
system.cpu2.num_vec_alu_accesses                    0                       # Number of vector alu accesses
system.cpu2.num_vec_insts                           0                       # number of vector instructions
system.cpu2.num_vec_register_reads                  0                       # number of times the vector registers were read
system.cpu2.num_vec_register_writes                 0                       # number of times the vector registers were written
system.cpu2.op_class::No_OpClass                    0      0.00%      0.00% # Class of executed instruction
system.cpu2.op_class::IntAlu                        4     21.05%     21.05% # Class of executed instruction
system.cpu2.op_class::IntMult                       0      0.00%     21.05% # Class of executed instruction
system.cpu2.op_class::IntDiv                        0      0.00%     21.05% # Class of executed instruction
system.cpu2.op_class::FloatAdd                      0      0.00%     21.05% # Class of executed instruction
system.cpu2.op_class::FloatCmp                      0      0.00%     21.05% # Class of executed instruction
system.cpu2.op_class::FloatCvt                      0      0.00%     21.05% # Class of executed instruction
system.cpu2.op_class::FloatMult                     0      0.00%     21.05% # Class of executed instruction
system.cpu2.op_class::FloatMultAcc                  0      0.00%     21.05% # Class of executed instruction
system.cpu2.op_class::FloatDiv                      0      0.00%     21.05% # Class of executed instruction
system.cpu2.op_class::FloatMisc                     0      0.00%     21.05% # Class of executed instruction
system.cpu2.op_class::FloatSqrt                     0      0.00%     21.05% # Class of executed instruction
system.cpu2.op_class::SimdAdd                       0      0.00%     21.05% # Class of executed instruction
system.cpu2.op_class::SimdAddAcc                    0      0.00%     21.05% # Class of executed instruction
system.cpu2.op_class::SimdAlu                       0      0.00%     21.05% # Class of executed instruction
system.cpu2.op_class::SimdCmp                       0      0.00%     21.05% # Class of executed instruction
system.cpu2.op_class::SimdCvt                       0      0.00%     21.05% # Class of executed instruction
system.cpu2.op_class::SimdMisc                      0      0.00%     21.05% # Class of executed instruction
system.cpu2.op_class::SimdMult                      0      0.00%     21.05% # Class of executed instruction
system.cpu2.op_class::SimdMultAcc                   0      0.00%     21.05% # Class of executed instruction
system.cpu2.op_class::SimdShift                     0      0.00%     21.05% # Class of executed instruction
system.cpu2.op_class::SimdShiftAcc                  0      0.00%     21.05% # Class of executed instruction
system.cpu2.op_class::SimdDiv                       0      0.00%     21.05% # Class of executed instruction
system.cpu2.op_class::SimdSqrt                      0      0.00%     21.05% # Class of executed instruction
system.cpu2.op_class::SimdFloatAdd                  0      0.00%     21.05% # Class of executed instruction
system.cpu2.op_class::SimdFloatAlu                  0      0.00%     21.05% # Class of executed instruction
system.cpu2.op_class::SimdFloatCmp                  0      0.00%     21.05% # Class of executed instruction
system.cpu2.op_class::SimdFloatCvt                  0      0.00%     21.05% # Class of executed instruction
system.cpu2.op_class::SimdFloatDiv                  0      0.00%     21.05% # Class of executed instruction
system.cpu2.op_class::SimdFloatMisc                 0      0.00%     21.05% # Class of executed instruction
system.cpu2.op_class::SimdFloatMult                 1      5.26%     26.32% # Class of executed instruction
system.cpu2.op_class::SimdFloatMultAcc              0      0.00%     26.32% # Class of executed instruction
system.cpu2.op_class::SimdFloatSqrt                 0      0.00%     26.32% # Class of executed instruction
system.cpu2.op_class::SimdReduceAdd                 0      0.00%     26.32% # Class of executed instruction
system.cpu2.op_class::SimdReduceAlu                 0      0.00%     26.32% # Class of executed instruction
system.cpu2.op_class::SimdReduceCmp                 0      0.00%     26.32% # Class of executed instruction
system.cpu2.op_class::SimdFloatReduceAdd            0      0.00%     26.32% # Class of executed instruction
system.cpu2.op_class::SimdFloatReduceCmp            0      0.00%     26.32% # Class of executed instruction
system.cpu2.op_class::SimdAes                       0      0.00%     26.32% # Class of executed instruction
system.cpu2.op_class::SimdAesMix                    0      0.00%     26.32% # Class of executed instruction
system.cpu2.op_class::SimdSha1Hash                  0      0.00%     26.32% # Class of executed instruction
system.cpu2.op_class::SimdSha1Hash2                 0      0.00%     26.32% # Class of executed instruction
system.cpu2.op_class::SimdSha256Hash                0      0.00%     26.32% # Class of executed instruction
system.cpu2.op_class::SimdSha256Hash2               0      0.00%     26.32% # Class of executed instruction
system.cpu2.op_class::SimdShaSigma2                 0      0.00%     26.32% # Class of executed instruction
system.cpu2.op_class::SimdShaSigma3                 0      0.00%     26.32% # Class of executed instruction
system.cpu2.op_class::SimdPredAlu                   0      0.00%     26.32% # Class of executed instruction
system.cpu2.op_class::MemRead                       0      0.00%     26.32% # Class of executed instruction
system.cpu2.op_class::MemWrite                      5     26.32%     52.63% # Class of executed instruction
system.cpu2.op_class::FloatMemRead                  2     10.53%     63.16% # Class of executed instruction
system.cpu2.op_class::FloatMemWrite                 7     36.84%    100.00% # Class of executed instruction
system.cpu2.op_class::IprAccess                     0      0.00%    100.00% # Class of executed instruction
system.cpu2.op_class::InstPrefetch                  0      0.00%    100.00% # Class of executed instruction
system.cpu2.op_class::total                        19                       # Class of executed instruction
system.cpu2.workload.numSyscalls                    0                       # Number of system calls
system.cpu3.Branches                                1                       # Number of branches fetched
system.cpu3.committedInsts                         17                       # Number of instructions committed
system.cpu3.committedOps                           22                       # Number of ops (including micro ops) committed
system.cpu3.idle_fraction                           0                       # Percentage of idle cycles
system.cpu3.l2bus.snoop_filter.hit_multi_requests           27                       # Number of requests hitting in the snoop filter with multiple (>1) holders of the requested data.
system.cpu3.l2bus.snoop_filter.hit_multi_snoops            0                       # Number of snoops hitting in the snoop filter with multiple (>1) holders of the requested data.
system.cpu3.l2bus.snoop_filter.hit_single_requests       260204                       # Number of requests hitting in the snoop filter with a single holder of the requested data.
system.cpu3.l2bus.snoop_filter.hit_single_snoops          333                       # Number of snoops hitting in the snoop filter with a single holder of the requested data.
system.cpu3.l2bus.snoop_filter.tot_requests       521337                       # Total number of requests made to the snoop filter.
system.cpu3.l2bus.snoop_filter.tot_snoops          333                       # Total number of snoops made to the snoop filter.
system.cpu3.mmucache.mmubus.snoop_filter.hit_multi_requests            0                       # Number of requests hitting in the snoop filter with multiple (>1) holders of the requested data.
system.cpu3.mmucache.mmubus.snoop_filter.hit_multi_snoops            0                       # Number of snoops hitting in the snoop filter with multiple (>1) holders of the requested data.
system.cpu3.mmucache.mmubus.snoop_filter.hit_single_requests            0                       # Number of requests hitting in the snoop filter with a single holder of the requested data.
system.cpu3.mmucache.mmubus.snoop_filter.hit_single_snoops            0                       # Number of snoops hitting in the snoop filter with a single holder of the requested data.
system.cpu3.mmucache.mmubus.snoop_filter.tot_requests            0                       # Total number of requests made to the snoop filter.
system.cpu3.mmucache.mmubus.snoop_filter.tot_snoops            0                       # Total number of snoops made to the snoop filter.
system.cpu3.not_idle_fraction                       1                       # Percentage of non-idle cycles
system.cpu3.numCycles                              30                       # number of cpu cycles simulated
system.cpu3.numWorkItemsCompleted                   0                       # number of work items this cpu completed
system.cpu3.numWorkItemsStarted                     0                       # number of work items this cpu started
system.cpu3.num_busy_cycles                        30                       # Number of busy cycles
system.cpu3.num_cc_register_reads                   1                       # number of times the CC registers were read
system.cpu3.num_cc_register_writes                  4                       # number of times the CC registers were written
system.cpu3.num_conditional_control_insts            0                       # number of instructions that are conditional controls
system.cpu3.num_fp_alu_accesses                     0                       # Number of float alu accesses
system.cpu3.num_fp_insts                            0                       # number of float instructions
system.cpu3.num_fp_register_reads                   0                       # number of times the floating registers were read
system.cpu3.num_fp_register_writes                  0                       # number of times the floating registers were written
system.cpu3.num_func_calls                          1                       # number of times a function call or return occured
system.cpu3.num_idle_cycles                         0                       # Number of idle cycles
system.cpu3.num_int_alu_accesses                   22                       # Number of integer alu accesses
system.cpu3.num_int_insts                          22                       # number of integer instructions
system.cpu3.num_int_register_reads                 62                       # number of times the integer registers were read
system.cpu3.num_int_register_writes                13                       # number of times the integer registers were written
system.cpu3.num_load_insts                          2                       # Number of load instructions
system.cpu3.num_mem_refs                           10                       # number of memory refs
system.cpu3.num_store_insts                         8                       # Number of store instructions
system.cpu3.num_vec_alu_accesses                    0                       # Number of vector alu accesses
system.cpu3.num_vec_insts                           0                       # number of vector instructions
system.cpu3.num_vec_register_reads                  0                       # number of times the vector registers were read
system.cpu3.num_vec_register_writes                 0                       # number of times the vector registers were written
system.cpu3.op_class::No_OpClass                    0      0.00%      0.00% # Class of executed instruction
system.cpu3.op_class::IntAlu                       12     54.55%     54.55% # Class of executed instruction
system.cpu3.op_class::IntMult                       0      0.00%     54.55% # Class of executed instruction
system.cpu3.op_class::IntDiv                        0      0.00%     54.55% # Class of executed instruction
system.cpu3.op_class::FloatAdd                      0      0.00%     54.55% # Class of executed instruction
system.cpu3.op_class::FloatCmp                      0      0.00%     54.55% # Class of executed instruction
system.cpu3.op_class::FloatCvt                      0      0.00%     54.55% # Class of executed instruction
system.cpu3.op_class::FloatMult                     0      0.00%     54.55% # Class of executed instruction
system.cpu3.op_class::FloatMultAcc                  0      0.00%     54.55% # Class of executed instruction
system.cpu3.op_class::FloatDiv                      0      0.00%     54.55% # Class of executed instruction
system.cpu3.op_class::FloatMisc                     0      0.00%     54.55% # Class of executed instruction
system.cpu3.op_class::FloatSqrt                     0      0.00%     54.55% # Class of executed instruction
system.cpu3.op_class::SimdAdd                       0      0.00%     54.55% # Class of executed instruction
system.cpu3.op_class::SimdAddAcc                    0      0.00%     54.55% # Class of executed instruction
system.cpu3.op_class::SimdAlu                       0      0.00%     54.55% # Class of executed instruction
system.cpu3.op_class::SimdCmp                       0      0.00%     54.55% # Class of executed instruction
system.cpu3.op_class::SimdCvt                       0      0.00%     54.55% # Class of executed instruction
system.cpu3.op_class::SimdMisc                      0      0.00%     54.55% # Class of executed instruction
system.cpu3.op_class::SimdMult                      0      0.00%     54.55% # Class of executed instruction
system.cpu3.op_class::SimdMultAcc                   0      0.00%     54.55% # Class of executed instruction
system.cpu3.op_class::SimdShift                     0      0.00%     54.55% # Class of executed instruction
system.cpu3.op_class::SimdShiftAcc                  0      0.00%     54.55% # Class of executed instruction
system.cpu3.op_class::SimdDiv                       0      0.00%     54.55% # Class of executed instruction
system.cpu3.op_class::SimdSqrt                      0      0.00%     54.55% # Class of executed instruction
system.cpu3.op_class::SimdFloatAdd                  0      0.00%     54.55% # Class of executed instruction
system.cpu3.op_class::SimdFloatAlu                  0      0.00%     54.55% # Class of executed instruction
system.cpu3.op_class::SimdFloatCmp                  0      0.00%     54.55% # Class of executed instruction
system.cpu3.op_class::SimdFloatCvt                  0      0.00%     54.55% # Class of executed instruction
system.cpu3.op_class::SimdFloatDiv                  0      0.00%     54.55% # Class of executed instruction
system.cpu3.op_class::SimdFloatMisc                 0      0.00%     54.55% # Class of executed instruction
system.cpu3.op_class::SimdFloatMult                 0      0.00%     54.55% # Class of executed instruction
system.cpu3.op_class::SimdFloatMultAcc              0      0.00%     54.55% # Class of executed instruction
system.cpu3.op_class::SimdFloatSqrt                 0      0.00%     54.55% # Class of executed instruction
system.cpu3.op_class::SimdReduceAdd                 0      0.00%     54.55% # Class of executed instruction
system.cpu3.op_class::SimdReduceAlu                 0      0.00%     54.55% # Class of executed instruction
system.cpu3.op_class::SimdReduceCmp                 0      0.00%     54.55% # Class of executed instruction
system.cpu3.op_class::SimdFloatReduceAdd            0      0.00%     54.55% # Class of executed instruction
system.cpu3.op_class::SimdFloatReduceCmp            0      0.00%     54.55% # Class of executed instruction
system.cpu3.op_class::SimdAes                       0      0.00%     54.55% # Class of executed instruction
system.cpu3.op_class::SimdAesMix                    0      0.00%     54.55% # Class of executed instruction
system.cpu3.op_class::SimdSha1Hash                  0      0.00%     54.55% # Class of executed instruction
system.cpu3.op_class::SimdSha1Hash2                 0      0.00%     54.55% # Class of executed instruction
system.cpu3.op_class::SimdSha256Hash                0      0.00%     54.55% # Class of executed instruction
system.cpu3.op_class::SimdSha256Hash2               0      0.00%     54.55% # Class of executed instruction
system.cpu3.op_class::SimdShaSigma2                 0      0.00%     54.55% # Class of executed instruction
system.cpu3.op_class::SimdShaSigma3                 0      0.00%     54.55% # Class of executed instruction
system.cpu3.op_class::SimdPredAlu                   0      0.00%     54.55% # Class of executed instruction
system.cpu3.op_class::MemRead                       2      9.09%     63.64% # Class of executed instruction
system.cpu3.op_class::MemWrite                      8     36.36%    100.00% # Class of executed instruction
system.cpu3.op_class::FloatMemRead                  0      0.00%    100.00% # Class of executed instruction
system.cpu3.op_class::FloatMemWrite                 0      0.00%    100.00% # Class of executed instruction
system.cpu3.op_class::IprAccess                     0      0.00%    100.00% # Class of executed instruction
system.cpu3.op_class::InstPrefetch                  0      0.00%    100.00% # Class of executed instruction
system.cpu3.op_class::total                        22                       # Class of executed instruction
system.cpu3.workload.numSyscalls                    0                       # Number of system calls
system.l3bus.snoop_filter.hit_multi_requests            0                       # Number of requests hitting in the snoop filter with multiple (>1) holders of the requested data.
system.l3bus.snoop_filter.hit_multi_snoops            0                       # Number of snoops hitting in the snoop filter with multiple (>1) holders of the requested data.
system.l3bus.snoop_filter.hit_single_requests       403035                       # Number of requests hitting in the snoop filter with a single holder of the requested data.
system.l3bus.snoop_filter.hit_single_snoops            0                       # Number of snoops hitting in the snoop filter with a single holder of the requested data.
system.l3bus.snoop_filter.tot_requests         822912                       # Total number of requests made to the snoop filter.
system.l3bus.snoop_filter.tot_snoops                0                       # Total number of snoops made to the snoop filter.
system.membus.snoop_filter.hit_multi_requests            0                       # Number of requests hitting in the snoop filter with multiple (>1) holders of the requested data.
system.membus.snoop_filter.hit_multi_snoops            0                       # Number of snoops hitting in the snoop filter with multiple (>1) holders of the requested data.
system.membus.snoop_filter.hit_single_requests       189617                       # Number of requests hitting in the snoop filter with a single holder of the requested data.
system.membus.snoop_filter.hit_single_snoops            0                       # Number of snoops hitting in the snoop filter with a single holder of the requested data.
system.membus.snoop_filter.tot_requests        460457                       # Total number of requests made to the snoop filter.
system.membus.snoop_filter.tot_snoops               0                       # Total number of snoops made to the snoop filter.
system.switch_cpus0.cc_regfile_reads         45137588                       # number of cc regfile reads
system.switch_cpus0.cc_regfile_writes        54345736                       # number of cc regfile writes
system.switch_cpus0.committedInsts          250000006                       # Number of Instructions Simulated
system.switch_cpus0.committedOps            297151015                       # Number of Ops (including micro ops) Simulated
system.switch_cpus0.cpi                      0.343556                       # CPI: Cycles Per Instruction
system.switch_cpus0.cpi_total                0.343556                       # CPI: Total CPI of All Threads
system.switch_cpus0.fp_regfile_reads        404200380                       # number of floating regfile reads
system.switch_cpus0.fp_regfile_writes       198343209                       # number of floating regfile writes
system.switch_cpus0.idleCycles                  19571                       # Total number of cycles that the CPU has spent unscheduled due to idling
system.switch_cpus0.iew.branchMispredicts       153366                       # Number of branch mispredicts detected at execute
system.switch_cpus0.iew.exec_branches         2765446                       # Number of branches executed
system.switch_cpus0.iew.exec_nop                    0                       # number of nop insts executed
system.switch_cpus0.iew.exec_rate            3.493501                       # Inst execution rate
system.switch_cpus0.iew.exec_refs            98352741                       # number of memory reference insts executed
system.switch_cpus0.iew.exec_stores          23618033                       # Number of stores executed
system.switch_cpus0.iew.exec_swp                    0                       # number of swp insts executed
system.switch_cpus0.iew.iewBlockCycles       12171449                       # Number of cycles IEW is blocking
system.switch_cpus0.iew.iewDispLoadInsts     75347247                       # Number of dispatched load instructions
system.switch_cpus0.iew.iewDispNonSpecInsts            0                       # Number of dispatched non-speculative instructions
system.switch_cpus0.iew.iewDispSquashedInsts        65665                       # Number of squashed instructions skipped by dispatch
system.switch_cpus0.iew.iewDispStoreInsts     23699249                       # Number of dispatched store instructions
system.switch_cpus0.iew.iewDispatchedInsts    303150806                       # Number of instructions dispatched to IQ
system.switch_cpus0.iew.iewExecLoadInsts     74734708                       # Number of load instructions executed
system.switch_cpus0.iew.iewExecSquashedInsts       245606                       # Number of squashed instructions skipped in execute
system.switch_cpus0.iew.iewExecutedInsts    300053636                       # Number of executed instructions
system.switch_cpus0.iew.iewIQFullEvents        203619                       # Number of times the IQ has become full, causing a stall
system.switch_cpus0.iew.iewIdleCycles               0                       # Number of cycles IEW is idle
system.switch_cpus0.iew.iewLSQFullEvents       364698                       # Number of times the LSQ has become full, causing a stall
system.switch_cpus0.iew.iewSquashCycles        153426                       # Number of cycles IEW is squashing
system.switch_cpus0.iew.iewUnblockCycles       630885                       # Number of cycles IEW is unblocking
system.switch_cpus0.iew.memOrderViolationEvents         4116                       # Number of memory order violations
system.switch_cpus0.iew.predictedNotTakenIncorrect        34495                       # Number of branches that were predicted not taken incorrectly
system.switch_cpus0.iew.predictedTakenIncorrect       118871                       # Number of branches that were predicted taken incorrectly
system.switch_cpus0.iew.wb_consumers        455459637                       # num instructions consuming a value
system.switch_cpus0.iew.wb_count            299933402                       # cumulative count of insts written-back
system.switch_cpus0.iew.wb_fanout            0.525703                       # average fanout of values written-back
system.switch_cpus0.iew.wb_producers        239436497                       # num instructions producing a value
system.switch_cpus0.iew.wb_rate              3.492101                       # insts written-back per cycle
system.switch_cpus0.iew.wb_sent             300004840                       # cumulative count of insts sent to commit
system.switch_cpus0.int_regfile_reads       312022475                       # number of integer regfile reads
system.switch_cpus0.int_regfile_writes       73201770                       # number of integer regfile writes
system.switch_cpus0.ipc                      2.910730                       # IPC: Instructions Per Cycle
system.switch_cpus0.ipc_total                2.910730                       # IPC: Total IPC of All Threads
system.switch_cpus0.iq.FU_type_0::No_OpClass        53238      0.02%      0.02% # Type of FU issued
system.switch_cpus0.iq.FU_type_0::IntAlu     86556474     28.82%     28.84% # Type of FU issued
system.switch_cpus0.iq.FU_type_0::IntMult        30135      0.01%     28.85% # Type of FU issued
system.switch_cpus0.iq.FU_type_0::IntDiv            0      0.00%     28.85% # Type of FU issued
system.switch_cpus0.iq.FU_type_0::FloatAdd            0      0.00%     28.85% # Type of FU issued
system.switch_cpus0.iq.FU_type_0::FloatCmp            0      0.00%     28.85% # Type of FU issued
system.switch_cpus0.iq.FU_type_0::FloatCvt            0      0.00%     28.85% # Type of FU issued
system.switch_cpus0.iq.FU_type_0::FloatMult            0      0.00%     28.85% # Type of FU issued
system.switch_cpus0.iq.FU_type_0::FloatMultAcc            0      0.00%     28.85% # Type of FU issued
system.switch_cpus0.iq.FU_type_0::FloatDiv            0      0.00%     28.85% # Type of FU issued
system.switch_cpus0.iq.FU_type_0::FloatMisc            0      0.00%     28.85% # Type of FU issued
system.switch_cpus0.iq.FU_type_0::FloatSqrt            0      0.00%     28.85% # Type of FU issued
system.switch_cpus0.iq.FU_type_0::SimdAdd            0      0.00%     28.85% # Type of FU issued
system.switch_cpus0.iq.FU_type_0::SimdAddAcc            0      0.00%     28.85% # Type of FU issued
system.switch_cpus0.iq.FU_type_0::SimdAlu       187384      0.06%     28.91% # Type of FU issued
system.switch_cpus0.iq.FU_type_0::SimdCmp            0      0.00%     28.91% # Type of FU issued
system.switch_cpus0.iq.FU_type_0::SimdCvt            0      0.00%     28.91% # Type of FU issued
system.switch_cpus0.iq.FU_type_0::SimdMisc          744      0.00%     28.91% # Type of FU issued
system.switch_cpus0.iq.FU_type_0::SimdMult            0      0.00%     28.91% # Type of FU issued
system.switch_cpus0.iq.FU_type_0::SimdMultAcc            0      0.00%     28.91% # Type of FU issued
system.switch_cpus0.iq.FU_type_0::SimdShift            0      0.00%     28.91% # Type of FU issued
system.switch_cpus0.iq.FU_type_0::SimdShiftAcc            0      0.00%     28.91% # Type of FU issued
system.switch_cpus0.iq.FU_type_0::SimdDiv            0      0.00%     28.91% # Type of FU issued
system.switch_cpus0.iq.FU_type_0::SimdSqrt            0      0.00%     28.91% # Type of FU issued
system.switch_cpus0.iq.FU_type_0::SimdFloatAdd     55718394     18.55%     47.47% # Type of FU issued
system.switch_cpus0.iq.FU_type_0::SimdFloatAlu            0      0.00%     47.47% # Type of FU issued
system.switch_cpus0.iq.FU_type_0::SimdFloatCmp            0      0.00%     47.47% # Type of FU issued
system.switch_cpus0.iq.FU_type_0::SimdFloatCvt      3366040      1.12%     48.59% # Type of FU issued
system.switch_cpus0.iq.FU_type_0::SimdFloatDiv            0      0.00%     48.59% # Type of FU issued
system.switch_cpus0.iq.FU_type_0::SimdFloatMisc            0      0.00%     48.59% # Type of FU issued
system.switch_cpus0.iq.FU_type_0::SimdFloatMult     55938986     18.63%     67.22% # Type of FU issued
system.switch_cpus0.iq.FU_type_0::SimdFloatMultAcc            0      0.00%     67.22% # Type of FU issued
system.switch_cpus0.iq.FU_type_0::SimdFloatSqrt            0      0.00%     67.22% # Type of FU issued
system.switch_cpus0.iq.FU_type_0::SimdReduceAdd            0      0.00%     67.22% # Type of FU issued
system.switch_cpus0.iq.FU_type_0::SimdReduceAlu            0      0.00%     67.22% # Type of FU issued
system.switch_cpus0.iq.FU_type_0::SimdReduceCmp            0      0.00%     67.22% # Type of FU issued
system.switch_cpus0.iq.FU_type_0::SimdFloatReduceAdd            0      0.00%     67.22% # Type of FU issued
system.switch_cpus0.iq.FU_type_0::SimdFloatReduceCmp            0      0.00%     67.22% # Type of FU issued
system.switch_cpus0.iq.FU_type_0::SimdAes            0      0.00%     67.22% # Type of FU issued
system.switch_cpus0.iq.FU_type_0::SimdAesMix            0      0.00%     67.22% # Type of FU issued
system.switch_cpus0.iq.FU_type_0::SimdSha1Hash            0      0.00%     67.22% # Type of FU issued
system.switch_cpus0.iq.FU_type_0::SimdSha1Hash2            0      0.00%     67.22% # Type of FU issued
system.switch_cpus0.iq.FU_type_0::SimdSha256Hash            0      0.00%     67.22% # Type of FU issued
system.switch_cpus0.iq.FU_type_0::SimdSha256Hash2            0      0.00%     67.22% # Type of FU issued
system.switch_cpus0.iq.FU_type_0::SimdShaSigma2            0      0.00%     67.22% # Type of FU issued
system.switch_cpus0.iq.FU_type_0::SimdShaSigma3            0      0.00%     67.22% # Type of FU issued
system.switch_cpus0.iq.FU_type_0::SimdPredAlu            0      0.00%     67.22% # Type of FU issued
system.switch_cpus0.iq.FU_type_0::MemRead     10869561      3.62%     70.84% # Type of FU issued
system.switch_cpus0.iq.FU_type_0::MemWrite      4012320      1.34%     72.17% # Type of FU issued
system.switch_cpus0.iq.FU_type_0::FloatMemRead     63950891     21.30%     93.47% # Type of FU issued
system.switch_cpus0.iq.FU_type_0::FloatMemWrite     19615076      6.53%    100.00% # Type of FU issued
system.switch_cpus0.iq.FU_type_0::IprAccess            0      0.00%    100.00% # Type of FU issued
system.switch_cpus0.iq.FU_type_0::InstPrefetch            0      0.00%    100.00% # Type of FU issued
system.switch_cpus0.iq.FU_type_0::total     300299243                       # Type of FU issued
system.switch_cpus0.iq.fp_alu_accesses      233484301                       # Number of floating point alu accesses
system.switch_cpus0.iq.fp_inst_queue_reads    453635235                       # Number of floating instruction queue reads
system.switch_cpus0.iq.fp_inst_queue_wakeup_accesses    219944099                       # Number of floating instruction queue wakeup accesses
system.switch_cpus0.iq.fp_inst_queue_writes    224542816                       # Number of floating instruction queue writes
system.switch_cpus0.iq.fu_busy_cnt           13911180                       # FU busy when requested
system.switch_cpus0.iq.fu_busy_rate          0.046324                       # FU busy rate (busy events/executed inst)
system.switch_cpus0.iq.fu_full::No_OpClass            0      0.00%      0.00% # attempts to use FU when none available
system.switch_cpus0.iq.fu_full::IntAlu          77580      0.56%      0.56% # attempts to use FU when none available
system.switch_cpus0.iq.fu_full::IntMult             0      0.00%      0.56% # attempts to use FU when none available
system.switch_cpus0.iq.fu_full::IntDiv              0      0.00%      0.56% # attempts to use FU when none available
system.switch_cpus0.iq.fu_full::FloatAdd            0      0.00%      0.56% # attempts to use FU when none available
system.switch_cpus0.iq.fu_full::FloatCmp            0      0.00%      0.56% # attempts to use FU when none available
system.switch_cpus0.iq.fu_full::FloatCvt            0      0.00%      0.56% # attempts to use FU when none available
system.switch_cpus0.iq.fu_full::FloatMult            0      0.00%      0.56% # attempts to use FU when none available
system.switch_cpus0.iq.fu_full::FloatMultAcc            0      0.00%      0.56% # attempts to use FU when none available
system.switch_cpus0.iq.fu_full::FloatDiv            0      0.00%      0.56% # attempts to use FU when none available
system.switch_cpus0.iq.fu_full::FloatMisc            0      0.00%      0.56% # attempts to use FU when none available
system.switch_cpus0.iq.fu_full::FloatSqrt            0      0.00%      0.56% # attempts to use FU when none available
system.switch_cpus0.iq.fu_full::SimdAdd             0      0.00%      0.56% # attempts to use FU when none available
system.switch_cpus0.iq.fu_full::SimdAddAcc            0      0.00%      0.56% # attempts to use FU when none available
system.switch_cpus0.iq.fu_full::SimdAlu           616      0.00%      0.56% # attempts to use FU when none available
system.switch_cpus0.iq.fu_full::SimdCmp             0      0.00%      0.56% # attempts to use FU when none available
system.switch_cpus0.iq.fu_full::SimdCvt             0      0.00%      0.56% # attempts to use FU when none available
system.switch_cpus0.iq.fu_full::SimdMisc            0      0.00%      0.56% # attempts to use FU when none available
system.switch_cpus0.iq.fu_full::SimdMult            0      0.00%      0.56% # attempts to use FU when none available
system.switch_cpus0.iq.fu_full::SimdMultAcc            0      0.00%      0.56% # attempts to use FU when none available
system.switch_cpus0.iq.fu_full::SimdShift            0      0.00%      0.56% # attempts to use FU when none available
system.switch_cpus0.iq.fu_full::SimdShiftAcc            0      0.00%      0.56% # attempts to use FU when none available
system.switch_cpus0.iq.fu_full::SimdDiv             0      0.00%      0.56% # attempts to use FU when none available
system.switch_cpus0.iq.fu_full::SimdSqrt            0      0.00%      0.56% # attempts to use FU when none available
system.switch_cpus0.iq.fu_full::SimdFloatAdd      2967925     21.33%     21.90% # attempts to use FU when none available
system.switch_cpus0.iq.fu_full::SimdFloatAlu            0      0.00%     21.90% # attempts to use FU when none available
system.switch_cpus0.iq.fu_full::SimdFloatCmp            0      0.00%     21.90% # attempts to use FU when none available
system.switch_cpus0.iq.fu_full::SimdFloatCvt           43      0.00%     21.90% # attempts to use FU when none available
system.switch_cpus0.iq.fu_full::SimdFloatDiv            0      0.00%     21.90% # attempts to use FU when none available
system.switch_cpus0.iq.fu_full::SimdFloatMisc            0      0.00%     21.90% # attempts to use FU when none available
system.switch_cpus0.iq.fu_full::SimdFloatMult      6650482     47.81%     69.70% # attempts to use FU when none available
system.switch_cpus0.iq.fu_full::SimdFloatMultAcc            0      0.00%     69.70% # attempts to use FU when none available
system.switch_cpus0.iq.fu_full::SimdFloatSqrt            0      0.00%     69.70% # attempts to use FU when none available
system.switch_cpus0.iq.fu_full::SimdReduceAdd            0      0.00%     69.70% # attempts to use FU when none available
system.switch_cpus0.iq.fu_full::SimdReduceAlu            0      0.00%     69.70% # attempts to use FU when none available
system.switch_cpus0.iq.fu_full::SimdReduceCmp            0      0.00%     69.70% # attempts to use FU when none available
system.switch_cpus0.iq.fu_full::SimdFloatReduceAdd            0      0.00%     69.70% # attempts to use FU when none available
system.switch_cpus0.iq.fu_full::SimdFloatReduceCmp            0      0.00%     69.70% # attempts to use FU when none available
system.switch_cpus0.iq.fu_full::SimdAes             0      0.00%     69.70% # attempts to use FU when none available
system.switch_cpus0.iq.fu_full::SimdAesMix            0      0.00%     69.70% # attempts to use FU when none available
system.switch_cpus0.iq.fu_full::SimdSha1Hash            0      0.00%     69.70% # attempts to use FU when none available
system.switch_cpus0.iq.fu_full::SimdSha1Hash2            0      0.00%     69.70% # attempts to use FU when none available
system.switch_cpus0.iq.fu_full::SimdSha256Hash            0      0.00%     69.70% # attempts to use FU when none available
system.switch_cpus0.iq.fu_full::SimdSha256Hash2            0      0.00%     69.70% # attempts to use FU when none available
system.switch_cpus0.iq.fu_full::SimdShaSigma2            0      0.00%     69.70% # attempts to use FU when none available
system.switch_cpus0.iq.fu_full::SimdShaSigma3            0      0.00%     69.70% # attempts to use FU when none available
system.switch_cpus0.iq.fu_full::SimdPredAlu            0      0.00%     69.70% # attempts to use FU when none available
system.switch_cpus0.iq.fu_full::MemRead        285723      2.05%     71.76% # attempts to use FU when none available
system.switch_cpus0.iq.fu_full::MemWrite       168409      1.21%     72.97% # attempts to use FU when none available
system.switch_cpus0.iq.fu_full::FloatMemRead      3705102     26.63%     99.60% # attempts to use FU when none available
system.switch_cpus0.iq.fu_full::FloatMemWrite        55300      0.40%    100.00% # attempts to use FU when none available
system.switch_cpus0.iq.fu_full::IprAccess            0      0.00%    100.00% # attempts to use FU when none available
system.switch_cpus0.iq.fu_full::InstPrefetch            0      0.00%    100.00% # attempts to use FU when none available
system.switch_cpus0.iq.int_alu_accesses      80672884                       # Number of integer alu accesses
system.switch_cpus0.iq.int_inst_queue_reads    246881047                       # Number of integer instruction queue reads
system.switch_cpus0.iq.int_inst_queue_wakeup_accesses     79989303                       # Number of integer instruction queue wakeup accesses
system.switch_cpus0.iq.int_inst_queue_writes     84611768                       # Number of integer instruction queue writes
system.switch_cpus0.iq.iqInstsAdded         303150806                       # Number of instructions added to the IQ (excludes non-spec)
system.switch_cpus0.iq.iqInstsIssued        300299243                       # Number of instructions issued
system.switch_cpus0.iq.iqSquashedInstsExamined      5999730                       # Number of squashed instructions iterated over during squash; mainly for profiling
system.switch_cpus0.iq.iqSquashedInstsIssued       137087                       # Number of squashed instructions issued
system.switch_cpus0.iq.iqSquashedOperandsExamined      9333842                       # Number of squashed operands that are examined and possibly removed from graph
system.switch_cpus0.iq.issued_per_cycle::samples     85869530                       # Number of insts issued each cycle
system.switch_cpus0.iq.issued_per_cycle::mean     3.497157                       # Number of insts issued each cycle
system.switch_cpus0.iq.issued_per_cycle::stdev     2.823834                       # Number of insts issued each cycle
system.switch_cpus0.iq.issued_per_cycle::underflows            0      0.00%      0.00% # Number of insts issued each cycle
system.switch_cpus0.iq.issued_per_cycle::0     22116714     25.76%     25.76% # Number of insts issued each cycle
system.switch_cpus0.iq.issued_per_cycle::1      5817865      6.78%     32.53% # Number of insts issued each cycle
system.switch_cpus0.iq.issued_per_cycle::2      7738392      9.01%     41.54% # Number of insts issued each cycle
system.switch_cpus0.iq.issued_per_cycle::3      6913115      8.05%     49.59% # Number of insts issued each cycle
system.switch_cpus0.iq.issued_per_cycle::4      9662235     11.25%     60.85% # Number of insts issued each cycle
system.switch_cpus0.iq.issued_per_cycle::5      8695519     10.13%     70.97% # Number of insts issued each cycle
system.switch_cpus0.iq.issued_per_cycle::6      8852551     10.31%     81.28% # Number of insts issued each cycle
system.switch_cpus0.iq.issued_per_cycle::7      5561704      6.48%     87.76% # Number of insts issued each cycle
system.switch_cpus0.iq.issued_per_cycle::8     10511435     12.24%    100.00% # Number of insts issued each cycle
system.switch_cpus0.iq.issued_per_cycle::overflows            0      0.00%    100.00% # Number of insts issued each cycle
system.switch_cpus0.iq.issued_per_cycle::min_value            0                       # Number of insts issued each cycle
system.switch_cpus0.iq.issued_per_cycle::max_value            8                       # Number of insts issued each cycle
system.switch_cpus0.iq.issued_per_cycle::total     85869530                       # Number of insts issued each cycle
system.switch_cpus0.iq.rate                  3.496360                       # Inst issue rate
system.switch_cpus0.iq.vec_alu_accesses             0                       # Number of vector alu accesses
system.switch_cpus0.iq.vec_inst_queue_reads            0                       # Number of vector instruction queue reads
system.switch_cpus0.iq.vec_inst_queue_wakeup_accesses            0                       # Number of vector instruction queue wakeup accesses
system.switch_cpus0.iq.vec_inst_queue_writes            0                       # Number of vector instruction queue writes
system.switch_cpus0.memDep0.conflictingLoads      5169717                       # Number of conflicting loads.
system.switch_cpus0.memDep0.conflictingStores      1869552                       # Number of conflicting stores.
system.switch_cpus0.memDep0.insertedLoads     75347247                       # Number of loads inserted to the mem dependence unit.
system.switch_cpus0.memDep0.insertedStores     23699249                       # Number of stores inserted to the mem dependence unit.
system.switch_cpus0.misc_regfile_reads      104157105                       # number of misc regfile reads
system.switch_cpus0.misc_regfile_writes             1                       # number of misc regfile writes
system.switch_cpus0.numCycles                85889101                       # number of cpu cycles simulated
system.switch_cpus0.numWorkItemsCompleted            0                       # number of work items this cpu completed
system.switch_cpus0.numWorkItemsStarted             0                       # number of work items this cpu started
system.switch_cpus0.timesIdled                    104                       # Number of times that the entire CPU went into an idle state and unscheduled itself
system.switch_cpus1.cc_regfile_reads        107242275                       # number of cc regfile reads
system.switch_cpus1.cc_regfile_writes        94720328                       # number of cc regfile writes
system.switch_cpus1.committedInsts          118242312                       # Number of Instructions Simulated
system.switch_cpus1.committedOps            191470269                       # Number of Ops (including micro ops) Simulated
system.switch_cpus1.cpi                      0.726382                       # CPI: Cycles Per Instruction
system.switch_cpus1.cpi_total                0.726382                       # CPI: Total CPI of All Threads
system.switch_cpus1.fp_regfile_reads           118727                       # number of floating regfile reads
system.switch_cpus1.fp_regfile_writes          118834                       # number of floating regfile writes
system.switch_cpus1.idleCycles                 119001                       # Total number of cycles that the CPU has spent unscheduled due to idling
system.switch_cpus1.iew.branchMispredicts      1575377                       # Number of branch mispredicts detected at execute
system.switch_cpus1.iew.exec_branches        21101707                       # Number of branches executed
system.switch_cpus1.iew.exec_nop                    0                       # number of nop insts executed
system.switch_cpus1.iew.exec_rate            2.802154                       # Inst execution rate
system.switch_cpus1.iew.exec_refs            54740369                       # number of memory reference insts executed
system.switch_cpus1.iew.exec_stores          16852946                       # Number of stores executed
system.switch_cpus1.iew.exec_swp                    0                       # number of swp insts executed
system.switch_cpus1.iew.iewBlockCycles       11973201                       # Number of cycles IEW is blocking
system.switch_cpus1.iew.iewDispLoadInsts     43776266                       # Number of dispatched load instructions
system.switch_cpus1.iew.iewDispNonSpecInsts            0                       # Number of dispatched non-speculative instructions
system.switch_cpus1.iew.iewDispSquashedInsts        45928                       # Number of squashed instructions skipped by dispatch
system.switch_cpus1.iew.iewDispStoreInsts     20294701                       # Number of dispatched store instructions
system.switch_cpus1.iew.iewDispatchedInsts    283267085                       # Number of instructions dispatched to IQ
system.switch_cpus1.iew.iewExecLoadInsts     37887423                       # Number of load instructions executed
system.switch_cpus1.iew.iewExecSquashedInsts      3185613                       # Number of squashed instructions skipped in execute
system.switch_cpus1.iew.iewExecutedInsts    240674457                       # Number of executed instructions
system.switch_cpus1.iew.iewIQFullEvents         24952                       # Number of times the IQ has become full, causing a stall
system.switch_cpus1.iew.iewIdleCycles               0                       # Number of cycles IEW is idle
system.switch_cpus1.iew.iewLSQFullEvents        30653                       # Number of times the LSQ has become full, causing a stall
system.switch_cpus1.iew.iewSquashCycles       1426719                       # Number of cycles IEW is squashing
system.switch_cpus1.iew.iewUnblockCycles        63587                       # Number of cycles IEW is unblocking
system.switch_cpus1.iew.memOrderViolationEvents        52461                       # Number of memory order violations
system.switch_cpus1.iew.predictedNotTakenIncorrect       776502                       # Number of branches that were predicted not taken incorrectly
system.switch_cpus1.iew.predictedTakenIncorrect       798875                       # Number of branches that were predicted taken incorrectly
system.switch_cpus1.iew.wb_consumers        311757286                       # num instructions consuming a value
system.switch_cpus1.iew.wb_count            239609393                       # cumulative count of insts written-back
system.switch_cpus1.iew.wb_fanout            0.584165                       # average fanout of values written-back
system.switch_cpus1.iew.wb_producers        182117705                       # num instructions producing a value
system.switch_cpus1.iew.wb_rate              2.789753                       # insts written-back per cycle
system.switch_cpus1.iew.wb_sent             240363530                       # cumulative count of insts sent to commit
system.switch_cpus1.int_regfile_reads       371185209                       # number of integer regfile reads
system.switch_cpus1.int_regfile_writes      203967455                       # number of integer regfile writes
system.switch_cpus1.ipc                      1.376686                       # IPC: Instructions Per Cycle
system.switch_cpus1.ipc_total                1.376686                       # IPC: Total IPC of All Threads
system.switch_cpus1.iq.FU_type_0::No_OpClass       588110      0.24%      0.24% # Type of FU issued
system.switch_cpus1.iq.FU_type_0::IntAlu    185295997     75.98%     76.23% # Type of FU issued
system.switch_cpus1.iq.FU_type_0::IntMult      1623329      0.67%     76.89% # Type of FU issued
system.switch_cpus1.iq.FU_type_0::IntDiv       407433      0.17%     77.06% # Type of FU issued
system.switch_cpus1.iq.FU_type_0::FloatAdd            0      0.00%     77.06% # Type of FU issued
system.switch_cpus1.iq.FU_type_0::FloatCmp            0      0.00%     77.06% # Type of FU issued
system.switch_cpus1.iq.FU_type_0::FloatCvt            0      0.00%     77.06% # Type of FU issued
system.switch_cpus1.iq.FU_type_0::FloatMult            0      0.00%     77.06% # Type of FU issued
system.switch_cpus1.iq.FU_type_0::FloatMultAcc            0      0.00%     77.06% # Type of FU issued
system.switch_cpus1.iq.FU_type_0::FloatDiv            0      0.00%     77.06% # Type of FU issued
system.switch_cpus1.iq.FU_type_0::FloatMisc            0      0.00%     77.06% # Type of FU issued
system.switch_cpus1.iq.FU_type_0::FloatSqrt            0      0.00%     77.06% # Type of FU issued
system.switch_cpus1.iq.FU_type_0::SimdAdd            0      0.00%     77.06% # Type of FU issued
system.switch_cpus1.iq.FU_type_0::SimdAddAcc            0      0.00%     77.06% # Type of FU issued
system.switch_cpus1.iq.FU_type_0::SimdAlu            0      0.00%     77.06% # Type of FU issued
system.switch_cpus1.iq.FU_type_0::SimdCmp            0      0.00%     77.06% # Type of FU issued
system.switch_cpus1.iq.FU_type_0::SimdCvt            0      0.00%     77.06% # Type of FU issued
system.switch_cpus1.iq.FU_type_0::SimdMisc            0      0.00%     77.06% # Type of FU issued
system.switch_cpus1.iq.FU_type_0::SimdMult            0      0.00%     77.06% # Type of FU issued
system.switch_cpus1.iq.FU_type_0::SimdMultAcc            0      0.00%     77.06% # Type of FU issued
system.switch_cpus1.iq.FU_type_0::SimdShift            0      0.00%     77.06% # Type of FU issued
system.switch_cpus1.iq.FU_type_0::SimdShiftAcc            0      0.00%     77.06% # Type of FU issued
system.switch_cpus1.iq.FU_type_0::SimdDiv            0      0.00%     77.06% # Type of FU issued
system.switch_cpus1.iq.FU_type_0::SimdSqrt            0      0.00%     77.06% # Type of FU issued
system.switch_cpus1.iq.FU_type_0::SimdFloatAdd            0      0.00%     77.06% # Type of FU issued
system.switch_cpus1.iq.FU_type_0::SimdFloatAlu            0      0.00%     77.06% # Type of FU issued
system.switch_cpus1.iq.FU_type_0::SimdFloatCmp            0      0.00%     77.06% # Type of FU issued
system.switch_cpus1.iq.FU_type_0::SimdFloatCvt            0      0.00%     77.06% # Type of FU issued
system.switch_cpus1.iq.FU_type_0::SimdFloatDiv            0      0.00%     77.06% # Type of FU issued
system.switch_cpus1.iq.FU_type_0::SimdFloatMisc            0      0.00%     77.06% # Type of FU issued
system.switch_cpus1.iq.FU_type_0::SimdFloatMult            0      0.00%     77.06% # Type of FU issued
system.switch_cpus1.iq.FU_type_0::SimdFloatMultAcc            0      0.00%     77.06% # Type of FU issued
system.switch_cpus1.iq.FU_type_0::SimdFloatSqrt            0      0.00%     77.06% # Type of FU issued
system.switch_cpus1.iq.FU_type_0::SimdReduceAdd            0      0.00%     77.06% # Type of FU issued
system.switch_cpus1.iq.FU_type_0::SimdReduceAlu            0      0.00%     77.06% # Type of FU issued
system.switch_cpus1.iq.FU_type_0::SimdReduceCmp            0      0.00%     77.06% # Type of FU issued
system.switch_cpus1.iq.FU_type_0::SimdFloatReduceAdd            0      0.00%     77.06% # Type of FU issued
system.switch_cpus1.iq.FU_type_0::SimdFloatReduceCmp            0      0.00%     77.06% # Type of FU issued
system.switch_cpus1.iq.FU_type_0::SimdAes            0      0.00%     77.06% # Type of FU issued
system.switch_cpus1.iq.FU_type_0::SimdAesMix            0      0.00%     77.06% # Type of FU issued
system.switch_cpus1.iq.FU_type_0::SimdSha1Hash            0      0.00%     77.06% # Type of FU issued
system.switch_cpus1.iq.FU_type_0::SimdSha1Hash2            0      0.00%     77.06% # Type of FU issued
system.switch_cpus1.iq.FU_type_0::SimdSha256Hash            0      0.00%     77.06% # Type of FU issued
[...]
system.switch_cpus3.commit.numCommittedDist::0     18413309     26.75%     26.75% # Number of insts commited each cycle
system.switch_cpus3.commit.numCommittedDist::1     20218125     29.37%     56.13% # Number of insts commited each cycle
system.switch_cpus3.commit.numCommittedDist::2      5946636      8.64%     64.77% # Number of insts commited each cycle
system.switch_cpus3.commit.numCommittedDist::3      7019659     10.20%     74.96% # Number of insts commited each cycle
system.switch_cpus3.commit.numCommittedDist::4      3182344      4.62%     79.59% # Number of insts commited each cycle
system.switch_cpus3.commit.numCommittedDist::5      1480771      2.15%     81.74% # Number of insts commited each cycle
system.switch_cpus3.commit.numCommittedDist::6      1219955      1.77%     83.51% # Number of insts commited each cycle
system.switch_cpus3.commit.numCommittedDist::7       969780      1.41%     84.92% # Number of insts commited each cycle
system.switch_cpus3.commit.numCommittedDist::8     10379098     15.08%    100.00% # Number of insts commited each cycle
system.switch_cpus3.commit.numCommittedDist::overflows            0      0.00%    100.00% # Number of insts commited each cycle
system.switch_cpus3.commit.numCommittedDist::min_value            0                       # Number of insts commited each cycle
system.switch_cpus3.commit.numCommittedDist::max_value            8                       # Number of insts commited each cycle
system.switch_cpus3.commit.numCommittedDist::total     68829677                       # Number of insts commited each cycle
system.switch_cpus3.commit.instsCommitted     93699557                       # Number of instructions committed
system.switch_cpus3.commit.opsCommitted     170444579                       # Number of ops (including micro ops) committed
system.switch_cpus3.commit.memRefs           35489097                       # Number of memory references committed
system.switch_cpus3.commit.loads             26078249                       # Number of loads committed
system.switch_cpus3.commit.amos                     0                       # Number of atomic instructions committed
system.switch_cpus3.commit.membars                  0                       # Number of memory barriers committed
system.switch_cpus3.commit.branches          16600014                       # Number of branches committed
system.switch_cpus3.commit.vector                   0                       # Number of committed Vector instructions.
system.switch_cpus3.commit.floating            711157                       # Number of committed floating point instructions.
system.switch_cpus3.commit.integer          169245941                       # Number of committed integer instructions.
system.switch_cpus3.commit.functionCalls      2522471                       # Number of function calls committed.
system.switch_cpus3.commit.committedInstType_0::No_OpClass       992792      0.58%      0.58% # Class of committed instruction
system.switch_cpus3.commit.committedInstType_0::IntAlu    130749748     76.71%     77.29% # Class of committed instruction
system.switch_cpus3.commit.committedInstType_0::IntMult       920140      0.54%     77.83% # Class of committed instruction
system.switch_cpus3.commit.committedInstType_0::IntDiv      2108742      1.24%     79.07% # Class of committed instruction
system.switch_cpus3.commit.committedInstType_0::FloatAdd        10004      0.01%     79.08% # Class of committed instruction
system.switch_cpus3.commit.committedInstType_0::FloatCmp            0      0.00%     79.08% # Class of committed instruction
system.switch_cpus3.commit.committedInstType_0::FloatCvt            0      0.00%     79.08% # Class of committed instruction
system.switch_cpus3.commit.committedInstType_0::FloatMult            0      0.00%     79.08% # Class of committed instruction
system.switch_cpus3.commit.committedInstType_0::FloatMultAcc            0      0.00%     79.08% # Class of committed instruction
system.switch_cpus3.commit.committedInstType_0::FloatDiv            0      0.00%     79.08% # Class of committed instruction
system.switch_cpus3.commit.committedInstType_0::FloatMisc            0      0.00%     79.08% # Class of committed instruction
system.switch_cpus3.commit.committedInstType_0::FloatSqrt            0      0.00%     79.08% # Class of committed instruction
system.switch_cpus3.commit.committedInstType_0::SimdAdd            0      0.00%     79.08% # Class of committed instruction
system.switch_cpus3.commit.committedInstType_0::SimdAddAcc            0      0.00%     79.08% # Class of committed instruction
system.switch_cpus3.commit.committedInstType_0::SimdAlu         9758      0.01%     79.08% # Class of committed instruction
system.switch_cpus3.commit.committedInstType_0::SimdCmp            0      0.00%     79.08% # Class of committed instruction
system.switch_cpus3.commit.committedInstType_0::SimdCvt            0      0.00%     79.08% # Class of committed instruction
system.switch_cpus3.commit.committedInstType_0::SimdMisc        40605      0.02%     79.11% # Class of committed instruction
system.switch_cpus3.commit.committedInstType_0::SimdMult            0      0.00%     79.11% # Class of committed instruction
system.switch_cpus3.commit.committedInstType_0::SimdMultAcc            0      0.00%     79.11% # Class of committed instruction
system.switch_cpus3.commit.committedInstType_0::SimdShift            0      0.00%     79.11% # Class of committed instruction
system.switch_cpus3.commit.committedInstType_0::SimdShiftAcc            0      0.00%     79.11% # Class of committed instruction
system.switch_cpus3.commit.committedInstType_0::SimdDiv            0      0.00%     79.11% # Class of committed instruction
system.switch_cpus3.commit.committedInstType_0::SimdSqrt            0      0.00%     79.11% # Class of committed instruction
system.switch_cpus3.commit.committedInstType_0::SimdFloatAdd        39323      0.02%     79.13% # Class of committed instruction
system.switch_cpus3.commit.committedInstType_0::SimdFloatAlu            0      0.00%     79.13% # Class of committed instruction
system.switch_cpus3.commit.committedInstType_0::SimdFloatCmp            0      0.00%     79.13% # Class of committed instruction
system.switch_cpus3.commit.committedInstType_0::SimdFloatCvt        83904      0.05%     79.18% # Class of committed instruction
system.switch_cpus3.commit.committedInstType_0::SimdFloatDiv          466      0.00%     79.18% # Class of committed instruction
system.switch_cpus3.commit.committedInstType_0::SimdFloatMisc            0      0.00%     79.18% # Class of committed instruction
system.switch_cpus3.commit.committedInstType_0::SimdFloatMult            0      0.00%     79.18% # Class of committed instruction
system.switch_cpus3.commit.committedInstType_0::SimdFloatMultAcc            0      0.00%     79.18% # Class of committed instruction
system.switch_cpus3.commit.committedInstType_0::SimdFloatSqrt            0      0.00%     79.18% # Class of committed instruction
system.switch_cpus3.commit.committedInstType_0::SimdReduceAdd            0      0.00%     79.18% # Class of committed instruction
system.switch_cpus3.commit.committedInstType_0::SimdReduceAlu            0      0.00%     79.18% # Class of committed instruction
system.switch_cpus3.commit.committedInstType_0::SimdReduceCmp            0      0.00%     79.18% # Class of committed instruction
system.switch_cpus3.commit.committedInstType_0::SimdFloatReduceAdd            0      0.00%     79.18% # Class of committed instruction
system.switch_cpus3.commit.committedInstType_0::SimdFloatReduceCmp            0      0.00%     79.18% # Class of committed instruction
system.switch_cpus3.commit.committedInstType_0::SimdAes            0      0.00%     79.18% # Class of committed instruction
system.switch_cpus3.commit.committedInstType_0::SimdAesMix            0      0.00%     79.18% # Class of committed instruction
system.switch_cpus3.commit.committedInstType_0::SimdSha1Hash            0      0.00%     79.18% # Class of committed instruction
system.switch_cpus3.commit.committedInstType_0::SimdSha1Hash2            0      0.00%     79.18% # Class of committed instruction
system.switch_cpus3.commit.committedInstType_0::SimdSha256Hash            0      0.00%     79.18% # Class of committed instruction
system.switch_cpus3.commit.committedInstType_0::SimdSha256Hash2            0      0.00%     79.18% # Class of committed instruction
system.switch_cpus3.commit.committedInstType_0::SimdShaSigma2            0      0.00%     79.18% # Class of committed instruction
system.switch_cpus3.commit.committedInstType_0::SimdShaSigma3            0      0.00%     79.18% # Class of committed instruction
system.switch_cpus3.commit.committedInstType_0::SimdPredAlu            0      0.00%     79.18% # Class of committed instruction
system.switch_cpus3.commit.committedInstType_0::MemRead     25777184     15.12%     94.30% # Class of committed instruction
system.switch_cpus3.commit.committedInstType_0::MemWrite      9188052      5.39%     99.69% # Class of committed instruction
system.switch_cpus3.commit.committedInstType_0::FloatMemRead       301065      0.18%     99.87% # Class of committed instruction
system.switch_cpus3.commit.committedInstType_0::FloatMemWrite       222796      0.13%    100.00% # Class of committed instruction
system.switch_cpus3.commit.committedInstType_0::IprAccess            0      0.00%    100.00% # Class of committed instruction
system.switch_cpus3.commit.committedInstType_0::InstPrefetch            0      0.00%    100.00% # Class of committed instruction
system.switch_cpus3.commit.committedInstType_0::total    170444579                       # Class of committed instruction
system.switch_cpus3.commit.commitEligibleSamples     10379098                       # number cycles where commit BW limit reached
system.switch_cpus3.decode.idleCycles         8254230                       # Number of cycles decode is idle
system.switch_cpus3.decode.blockedCycles     30249191                       # Number of cycles decode is blocked
system.switch_cpus3.decode.runCycles         35707926                       # Number of cycles decode is running
system.switch_cpus3.decode.unblockCycles      9649992                       # Number of cycles decode is unblocking
system.switch_cpus3.decode.squashCycles       1947588                       # Number of cycles decode is squashing
system.switch_cpus3.decode.branchResolved     14940227                       # Number of times decode resolved a  branch
system.switch_cpus3.decode.branchMispred       131557                       # Number of times decode detected a branch misprediction
system.switch_cpus3.decode.decodedInsts     327923056                       # Number of instructions handled by decode
system.switch_cpus3.decode.squashedInsts       749476                       # Number of squashed instructions handled by decode
system.switch_cpus3.dtb.rdAccesses           37557871                       # TLB accesses on read requests
system.switch_cpus3.dtb.wrAccesses           12242521                       # TLB accesses on write requests
system.switch_cpus3.dtb.rdMisses                43808                       # TLB misses on read requests
system.switch_cpus3.dtb.wrMisses                 1743                       # TLB misses on write requests
system.switch_cpus3.dtb.walker.power_state.pwrStateResidencyTicks::UNDEFINED 13973759565687                       # Cumulative time (in ticks) in various power states
system.switch_cpus3.fetch.icacheStallCycles      1829134                       # Number of cycles fetch is stalled on an Icache miss
system.switch_cpus3.fetch.insts             200468108                       # Number of instructions fetch has processed
system.switch_cpus3.fetch.branches           36754669                       # Number of branches that fetch encountered
system.switch_cpus3.fetch.predictedBranches     21349746                       # Number of branches that fetch has predicted taken
system.switch_cpus3.fetch.cycles             81906843                       # Number of cycles fetch has run and was not squashing or blocked
system.switch_cpus3.fetch.squashCycles        4145876                       # Number of cycles fetch has spent squashing
system.switch_cpus3.fetch.miscStallCycles            1                       # Number of cycles fetch has spent waiting on interrupts,or bad addresses, or out of MSHRs
system.switch_cpus3.fetch.pendingTrapStallCycles           12                       # Number of stall cycles due to pending traps
system.switch_cpus3.fetch.cacheLines         30514727                       # Number of cache lines fetched
system.switch_cpus3.fetch.icacheSquashes         2459                       # Number of outstanding Icache misses that were squashed
system.switch_cpus3.fetch.nisnDist::samples     85808928                       # Number of instructions fetched each cycle (Total)
system.switch_cpus3.fetch.nisnDist::mean     4.219802                       # Number of instructions fetched each cycle (Total)
system.switch_cpus3.fetch.nisnDist::stdev     3.367881                       # Number of instructions fetched each cycle (Total)
system.switch_cpus3.fetch.nisnDist::underflows            0      0.00%      0.00% # Number of instructions fetched each cycle (Total)
system.switch_cpus3.fetch.nisnDist::0        24431715     28.47%     28.47% # Number of instructions fetched each cycle (Total)
system.switch_cpus3.fetch.nisnDist::1         4595860      5.36%     33.83% # Number of instructions fetched each cycle (Total)
system.switch_cpus3.fetch.nisnDist::2         3587018      4.18%     38.01% # Number of instructions fetched each cycle (Total)
system.switch_cpus3.fetch.nisnDist::3         5590852      6.52%     44.52% # Number of instructions fetched each cycle (Total)
system.switch_cpus3.fetch.nisnDist::4         4137462      4.82%     49.35% # Number of instructions fetched each cycle (Total)
system.switch_cpus3.fetch.nisnDist::5         5995725      6.99%     56.33% # Number of instructions fetched each cycle (Total)
system.switch_cpus3.fetch.nisnDist::6         4435070      5.17%     61.50% # Number of instructions fetched each cycle (Total)
system.switch_cpus3.fetch.nisnDist::7         3866437      4.51%     66.01% # Number of instructions fetched each cycle (Total)
system.switch_cpus3.fetch.nisnDist::8        29168789     33.99%    100.00% # Number of instructions fetched each cycle (Total)
system.switch_cpus3.fetch.nisnDist::overflows            0      0.00%    100.00% # Number of instructions fetched each cycle (Total)
system.switch_cpus3.fetch.nisnDist::min_value            0                       # Number of instructions fetched each cycle (Total)
system.switch_cpus3.fetch.nisnDist::max_value            8                       # Number of instructions fetched each cycle (Total)
system.switch_cpus3.fetch.nisnDist::total     85808928                       # Number of instructions fetched each cycle (Total)
system.switch_cpus3.fetch.branchRate         0.427932                       # Number of branch fetches per cycle
system.switch_cpus3.fetch.rate               2.334034                       # Number of inst fetches per cycle
system.switch_cpus3.itb.rdAccesses                  0                       # TLB accesses on read requests
system.switch_cpus3.itb.wrAccesses           30514730                       # TLB accesses on write requests
system.switch_cpus3.itb.rdMisses                    0                       # TLB misses on read requests
system.switch_cpus3.itb.wrMisses                   40                       # TLB misses on write requests
system.switch_cpus3.itb.walker.power_state.pwrStateResidencyTicks::UNDEFINED 13973759565687                       # Cumulative time (in ticks) in various power states
system.switch_cpus3.lsq0.forwLoads            4892713                       # Number of loads that had data forwarded from stores
system.switch_cpus3.lsq0.squashedLoads       20485025                       # Number of loads squashed
system.switch_cpus3.lsq0.ignoredResponses        23809                       # Number of memory responses ignored because the instruction is squashed
system.switch_cpus3.lsq0.memOrderViolation        14315                       # Number of memory ordering violations
system.switch_cpus3.lsq0.squashedStores       5680745                       # Number of stores squashed
system.switch_cpus3.lsq0.rescheduledLoads        15824                       # Number of loads that were rescheduled
system.switch_cpus3.lsq0.blockedByCache             0                       # Number of times an access to memory failed due to the cache being blocked
system.switch_cpus3.power_state.pwrStateResidencyTicks::OFF  28601080956                       # Cumulative time (in ticks) in various power states
system.switch_cpus3.rename.squashCycles       1947588                       # Number of cycles rename is squashing
system.switch_cpus3.rename.idleCycles        12391132                       # Number of cycles rename is idle
system.switch_cpus3.rename.blockCycles       16434256                       # Number of cycles rename is blocking
system.switch_cpus3.rename.serializeStallCycles            0                       # count of cycles rename stalledfor serializing inst
system.switch_cpus3.rename.runCycles         40873975                       # Number of cycles rename is running
system.switch_cpus3.rename.unblockCycles     14161976                       # Number of cycles rename is unblocking
system.switch_cpus3.rename.renamedInsts     316046990                       # Number of instructions processed by rename
system.switch_cpus3.rename.ROBFullEvents       119901                       # Number of times rename has blocked due to ROB full
system.switch_cpus3.rename.IQFullEvents      10847273                       # Number of times rename has blocked due to IQ full
system.switch_cpus3.rename.LQFullEvents        896686                       # Number of times rename has blocked due to LQ full
system.switch_cpus3.rename.SQFullEvents        851286                       # Number of times rename has blocked due to SQ full
system.switch_cpus3.rename.renamedOperands    397399000                       # Number of destination operands rename has renamed
system.switch_cpus3.rename.lookups          811147753                       # Number of register rename lookups that rename has made
system.switch_cpus3.rename.intLookups       507137565                       # Number of integer rename lookups
system.switch_cpus3.rename.fpLookups           722232                       # Number of floating rename lookups
system.switch_cpus3.rename.committedMaps    216290525                       # Number of HB maps that are committed
system.switch_cpus3.rename.undoneMaps       181108361                       # Number of HB maps that are undone due to squashing
system.switch_cpus3.rename.serializing              0                       # count of serializing insts renamed
system.switch_cpus3.rename.tempSerializing            0                       # count of temporary serializing insts renamed
system.switch_cpus3.rename.skidInsts         34600598                       # count of insts added to the skid buffer
system.switch_cpus3.rob.reads               353585691                       # The number of ROB reads
system.switch_cpus3.rob.writes              607405955                       # The number of ROB writes
system.switch_cpus3.thread0.numInsts         93699557                       # Number of Instructions committed
system.switch_cpus3.thread0.numOps          170444579                       # Number of Ops committed
system.switch_cpus3.thread0.numMemRefs              0                       # Number of Memory References
system.voltage_domain.voltage                       1                       # Voltage in Volts

---------- End Simulation Statistics   ----------
