Command line:
./runscript_pride.sh mix12 RFM5.BR2.4C 4 2017 --rh_defense --rh_mitigation=RFM --rh_rfm_per_trefi=5 --rh_rfm_blast_radius=2 --rh_rfm_maxacts_per_trefi=79
Global frequency set at 1000000000000 ticks per second
RFM details - rfm_act_threshold: 15, blast_radius: 2, delay_per_rfm: 175000 ps. sample_rate: 0.062500
RH Defense config: RFM, Bus Delay: 0, rfms_per_trefi: 5, rfm_act_threshold: 15, blast_radius: 2,rfm_delay_per_act: 45000 ps.
DRAM config: RowsPerBank: 65536, BanksPerRank: 32, RanksPerChannel: 1
warn: Sockets disabled, not accepting gdb connections
warn: CoherentXBar system.cpu0.mmucache.mmubus has no snooping ports attached!
warn: CoherentXBar system.cpu1.mmucache.mmubus has no snooping ports attached!
warn: CoherentXBar system.cpu2.mmucache.mmubus has no snooping ports attached!
warn: CoherentXBar system.cpu3.mmucache.mmubus has no snooping ports attached!
warn: Checkpoints for file descriptors currently do not work.
warn: Checkpoints for file descriptors currently do not work.
warn: Checkpoints for file descriptors currently do not work.
warn: Checkpoints for file descriptors currently do not work.
gem5 Simulator System.  http://gem5.org
gem5 is copyrighted software; use the --copyright option for details.

gem5 version 20.1.0.5
gem5 compiled Jul 12 2024 12:42:38
gem5 started Aug  1 2024 18:27:14
gem5 executing on a07dda8b130c, pid 251029
command line: /home/user/PrIDE/performance/gem5/build/X86/gem5.opt --outdir=/home/user/PrIDE/performance/gem5/stats/pride_multiprogram_16GBmem_250Mn.SPEC2017.C4/RFM5.BR2.4C/mix12 /home/user/PrIDE/performance/gem5/configs/example/se_rq_spec_config_multicore.py --redirects /lib64=/home/utils/gcc-6.2.0/lib64 --benchmark=mix12 --benchmark_stdout=/home/user/PrIDE/performance/gem5/stats/pride_multiprogram_16GBmem_250Mn.SPEC2017.C4/RFM5.BR2.4C/mix12/mix12.out --benchmark_stderr=/home/user/PrIDE/performance/gem5/stats/pride_multiprogram_16GBmem_250Mn.SPEC2017.C4/RFM5.BR2.4C/mix12/mix12.err --spec-version=2017 --rh_defense --rh_mitigation=RFM --rh_rfm_per_trefi=5 --rh_rfm_blast_radius=2 --rh_rfm_maxacts_per_trefi=79 --num-cpus=4 --mem-size=16GB --mem-type=DDR5_2400_32x4 --mem-ranks=1 --mem-channels=1 --checkpoint-dir=/home/user/PrIDE/performance/gem5/cpts-DDR5/multiprogram_16GBmem_25Bn.SPEC2017.C4/mix12-1-ref-x86 --checkpoint-restore=25000000000 --at-instruction --cpu-type DerivO3CPU --caches --l2cache --l1d_size=32kB --l1i_size=32kB --l2_size=256kB --l3_size=4MB --l1d_assoc=8 --l1i_assoc=8 --l2_assoc=16 --l3_assoc=16 --cpu-clock=3GHz --sys-clock=3GHz --maxinsts=250000000 --prog-interval=300Hz

info: Standard input is not a terminal, disabling listeners.
Benchmark- 0   roms
Selected benchmark
--> roms
CMD: ['/opt/spec2017/benchspec/CPU/554.roms_r/run/run_base_refrate_gem5_se-m64.0000/roms_r_base.gem5_se-m64']
CWD: /opt/spec2017/benchspec/CPU/554.roms_r/run/run_base_refrate_gem5_se-m64.0000/
Process stdout file: /home/user/PrIDE/performance/gem5/stats/pride_multiprogram_16GBmem_250Mn.SPEC2017.C4/RFM5.BR2.4C/mix12/mix12.out_0
Process stderr file: /home/user/PrIDE/performance/gem5/stats/pride_multiprogram_16GBmem_250Mn.SPEC2017.C4/RFM5.BR2.4C/mix12/mix12.err_0
Benchmark- 1   mcf
Selected benchmark
--> mcf
CMD: ['/opt/spec2017/benchspec/CPU/505.mcf_r/run/run_base_refrate_gem5_se-m64.0000/mcf_r_base.gem5_se-m64', '/opt/spec2017/benchspec/CPU/505.mcf_r/run/run_base_refrate_gem5_se-m64.0000/inp.in']
CWD: /opt/spec2017/benchspec/CPU/505.mcf_r/run/run_base_refrate_gem5_se-m64.0000/
Process stdout file: /home/user/PrIDE/performance/gem5/stats/pride_multiprogram_16GBmem_250Mn.SPEC2017.C4/RFM5.BR2.4C/mix12/mix12.out_1
Process stderr file: /home/user/PrIDE/performance/gem5/stats/pride_multiprogram_16GBmem_250Mn.SPEC2017.C4/RFM5.BR2.4C/mix12/mix12.err_1
Benchmark- 2   imagick
Selected benchmark
--> imagick
CMD: ['/opt/spec2017/benchspec/CPU/538.imagick_r/run/run_base_refrate_gem5_se-m64.0000/imagick_r_base.gem5_se-m64', '-limit', 'disk', '0', '/opt/spec2017/benchspec/CPU/538.imagick_r/run/run_base_refrate_gem5_se-m64.0000/refrate_input.tga', '-edge', '41', '-resample', '181%', '-emboss', '31', '-colorspace', 'YUV', '-mean-shift', '19x19+15%', '-resize', '30%', '/opt/spec2017/benchspec/CPU/538.imagick_r/run/run_base_refrate_gem5_se-m64.0000/refrate_output.tga']
CWD: /opt/spec2017/benchspec/CPU/538.imagick_r/run/run_base_refrate_gem5_se-m64.0000/
Process stdout file: /home/user/PrIDE/performance/gem5/stats/pride_multiprogram_16GBmem_250Mn.SPEC2017.C4/RFM5.BR2.4C/mix12/mix12.out_2
Process stderr file: /home/user/PrIDE/performance/gem5/stats/pride_multiprogram_16GBmem_250Mn.SPEC2017.C4/RFM5.BR2.4C/mix12/mix12.err_2
Benchmark- 3   blender
Selected benchmark
--> blender
CMD: ['/opt/spec2017/benchspec/CPU/526.blender_r/run/run_base_refrate_gem5_se-m64.0000/blender_r_base.gem5_se-m64', '/opt/spec2017/benchspec/CPU/526.blender_r/run/run_base_refrate_gem5_se-m64.0000/sh3_no_char.blend', '--render-output', 'sh3_no_char_', '--threads', '1', '-b', '-F', 'RAWTGA', '-s', '849', '-e', '849', '-a']
CWD: /opt/spec2017/benchspec/CPU/526.blender_r/run/run_base_refrate_gem5_se-m64.0000/
Process stdout file: /home/user/PrIDE/performance/gem5/stats/pride_multiprogram_16GBmem_250Mn.SPEC2017.C4/RFM5.BR2.4C/mix12/mix12.out_3
Process stderr file: /home/user/PrIDE/performance/gem5/stats/pride_multiprogram_16GBmem_250Mn.SPEC2017.C4/RFM5.BR2.4C/mix12/mix12.err_3
Workload-0: 
['/opt/spec2017/benchspec/CPU/554.roms_r/run/run_base_refrate_gem5_se-m64.0000/roms_r_base.gem5_se-m64']
Workload-1: 
['/opt/spec2017/benchspec/CPU/505.mcf_r/run/run_base_refrate_gem5_se-m64.0000/mcf_r_base.gem5_se-m64', '/opt/spec2017/benchspec/CPU/505.mcf_r/run/run_base_refrate_gem5_se-m64.0000/inp.in']
Workload-2: 
['/opt/spec2017/benchspec/CPU/538.imagick_r/run/run_base_refrate_gem5_se-m64.0000/imagick_r_base.gem5_se-m64', '-limit', 'disk', '0', '/opt/spec2017/benchspec/CPU/538.imagick_r/run/run_base_refrate_gem5_se-m64.0000/refrate_input.tga', '-edge', '41', '-resample', '181%', '-emboss', '31', '-colorspace', 'YUV', '-mean-shift', '19x19+15%', '-resize', '30%', '/opt/spec2017/benchspec/CPU/538.imagick_r/run/run_base_refrate_gem5_se-m64.0000/refrate_output.tga']
Workload-3: 
['/opt/spec2017/benchspec/CPU/526.blender_r/run/run_base_refrate_gem5_se-m64.0000/blender_r_base.gem5_se-m64', '/opt/spec2017/benchspec/CPU/526.blender_r/run/run_base_refrate_gem5_se-m64.0000/sh3_no_char.blend', '--render-output', 'sh3_no_char_', '--threads', '1', '-b', '-F', 'RAWTGA', '-s', '849', '-e', '849', '-a']
defense_enable:  True  detector:  MG  mitigation:  RFM  threshold:  800
mg_entries:  1700
rfm_maxacts_per_trefi:  79 rfm_per_trefi:  5 rfm_blast_radius:  2
Switch at curTick count:10000
warn: membus.master is deprecated. `master` is now called `mem_side_ports`
warn: No dot file generated. Please install pydot to generate the dot file and pdf.
info: Entering event queue @ 15651257118624.  Starting simulation...
info: Entering event queue @ 15651257128624.  Starting simulation...
warn: PowerState: Already in the requested power state, request ignored
Switched CPUS @ tick 15651257128624
switching cpus
**** REAL SIMULATION ****
info: Entering event queue @ 15651257129280.  Starting simulation...
15654590451957: Event_285: system.switch_cpus3 progress event, total committed:37081297, progress insts committed: 37081297, IPC: 03.70442
15654590451957: Event_284: system.switch_cpus2 progress event, total committed:51473193, progress insts committed: 51473193, IPC: 05.14217
15654590451957: Event_283: system.switch_cpus1 progress event, total committed:10863943, progress insts committed: 10863943, IPC: 01.08531
15654590451957: Event_282: system.switch_cpus0 progress event, total committed:8770412, progress insts committed: 8770412, IPC: 0.876164
warn: MOVNTDQ: Ignoring non-temporal hint, modeling as cacheable!
15657923785290: Event_282: system.switch_cpus0 progress event, total committed:17854840, progress insts committed: 9084428, IPC: 0.907534
15657923785290: Event_283: system.switch_cpus1 progress event, total committed:22183775, progress insts committed: 11319832, IPC: 01.13085
15657923785290: Event_284: system.switch_cpus2 progress event, total committed:97918579, progress insts committed: 46445386, IPC: 04.63989
15657923785290: Event_285: system.switch_cpus3 progress event, total committed:75062853, progress insts committed: 37981556, IPC: 03.79436
15661257118623: Event_285: system.switch_cpus3 progress event, total committed:112724677, progress insts committed: 37661824, IPC: 03.76242
15661257118623: Event_284: system.switch_cpus2 progress event, total committed:121425727, progress insts committed: 23507148, IPC: 02.34836
15661257118623: Event_283: system.switch_cpus1 progress event, total committed:33549236, progress insts committed: 11365461, IPC: 01.13541
15661257118623: Event_282: system.switch_cpus0 progress event, total committed:26382414, progress insts committed: 8527574, IPC: 0.851905
15664590451956: Event_282: system.switch_cpus0 progress event, total committed:35954872, progress insts committed: 9572458, IPC: 0.956289
15664590451956: Event_283: system.switch_cpus1 progress event, total committed:42691436, progress insts committed: 9142200, IPC: 0.913306
15664590451956: Event_284: system.switch_cpus2 progress event, total committed:174333432, progress insts committed: 52907705, IPC: 05.28548
15664590451956: Event_285: system.switch_cpus3 progress event, total committed:148253882, progress insts committed: 35529205, IPC: 03.54937
15667923785289: Event_285: system.switch_cpus3 progress event, total committed:182940532, progress insts committed: 34686650, IPC: 003.4652
15667923785289: Event_284: system.switch_cpus2 progress event, total committed:227151335, progress insts committed: 52817903, IPC: 05.27651
15667923785289: Event_283: system.switch_cpus1 progress event, total committed:52678588, progress insts committed: 9987152, IPC: 0.997716
15667923785289: Event_282: system.switch_cpus0 progress event, total committed:44981626, progress insts committed: 9026754, IPC: 0.901773
15671257118622: Event_282: system.switch_cpus0 progress event, total committed:51762020, progress insts committed: 6780394, IPC: 0.677361
15671257118622: Event_283: system.switch_cpus1 progress event, total committed:62104506, progress insts committed: 9425918, IPC: 0.941649
15671257118622: Event_284: system.switch_cpus2 progress event, total committed:279873793, progress insts committed: 52722458, IPC: 05.26697
15671257118622: Event_285: system.switch_cpus3 progress event, total committed:218322678, progress insts committed: 35382146, IPC: 03.53468
15674590451955: Event_285: system.switch_cpus3 progress event, total committed:256600250, progress insts committed: 38277572, IPC: 03.82393
15674590451955: Event_284: system.switch_cpus2 progress event, total committed:333021168, progress insts committed: 53147375, IPC: 05.30942
15674590451955: Event_283: system.switch_cpus1 progress event, total committed:73848841, progress insts committed: 11744335, IPC: 01.17326
15674590451955: Event_282: system.switch_cpus0 progress event, total committed:78049413, progress insts committed: 26287393, IPC: 02.62611
15677923785288: Event_282: system.switch_cpus0 progress event, total committed:104549748, progress insts committed: 26500335, IPC: 02.64738
15677923785288: Event_283: system.switch_cpus1 progress event, total committed:85085182, progress insts committed: 11236341, IPC: 01.12251
15677923785288: Event_284: system.switch_cpus2 progress event, total committed:386164953, progress insts committed: 53143785, IPC: 05.30906
15677923785288: Event_285: system.switch_cpus3 progress event, total committed:295192033, progress insts committed: 38591783, IPC: 03.85532
Exiting @ tick 15680245109949 because a thread reached the max instruction count
