Command line:
./runscript_pride.sh mix12 RFM5.BR2.4C 4 2017 --rh_defense --rh_mitigation=RFM --rh_rfm_per_trefi=5 --rh_rfm_blast_radius=2 --rh_rfm_maxacts_per_trefi=79
Global frequency set at 1000000000000 ticks per second
RFM details - rfm_act_threshold: 15, blast_radius: 2, delay_per_rfm: 175000 ps. sample_rate: 0.062500
RH Defense config: RFM, Bus Delay: 0, rfms_per_trefi: 5, rfm_act_threshold: 15, blast_radius: 2,rfm_delay_per_act: 45000 ps.
DRAM config: RowsPerBank: 65536, BanksPerRank: 32, RanksPerChannel: 1
warn: Sockets disabled, not accepting gdb connections
warn: CoherentXBar system.cpu0.mmucache.mmubus has no snooping ports attached!
warn: CoherentXBar system.cpu1.mmucache.mmubus has no snooping ports attached!
warn: CoherentXBar system.cpu2.mmucache.mmubus has no snooping ports attached!
warn: CoherentXBar system.cpu3.mmucache.mmubus has no snooping ports attached!
warn: Checkpoints for file descriptors currently do not work.
warn: Checkpoints for file descriptors currently do not work.
warn: Checkpoints for file descriptors currently do not work.
warn: Checkpoints for file descriptors currently do not work.
gem5 Simulator System.  http://gem5.org
gem5 is copyrighted software; use the --copyright option for details.

gem5 version 20.1.0.5
gem5 compiled Jul 12 2024 12:42:38
gem5 started Jul 22 2024 17:24:37
gem5 executing on a07dda8b130c, pid 89492
command line: /home/user/PrIDE/performance/gem5/build/X86/gem5.opt --outdir=/home/user/PrIDE/performance/gem5/stats/pride_multiprogram_16GBmem_250Mn.SPEC2017.C4/RFM5.BR2.4C/mix12 /home/user/PrIDE/performance/gem5/configs/example/se_rq_spec_config_multicore.py --redirects /lib64=/home/utils/gcc-6.2.0/lib64 --benchmark=mix12 --benchmark_stdout=/home/user/PrIDE/performance/gem5/stats/pride_multiprogram_16GBmem_250Mn.SPEC2017.C4/RFM5.BR2.4C/mix12/mix12.out --benchmark_stderr=/home/user/PrIDE/performance/gem5/stats/pride_multiprogram_16GBmem_250Mn.SPEC2017.C4/RFM5.BR2.4C/mix12/mix12.err --spec-version=2017 --rh_defense --rh_mitigation=RFM --rh_rfm_per_trefi=5 --rh_rfm_blast_radius=2 --rh_rfm_maxacts_per_trefi=79 --num-cpus=4 --mem-size=16GB --mem-type=DDR5_2400_32x4 --mem-ranks=1 --checkpoint-dir=/home/user/PrIDE/performance/gem5/cpts/multiprogram_16GBmem_25Bn.SPEC2017.C4/mix12-1-ref-x86 --checkpoint-restore=25000000000 --at-instruction --cpu-type DerivO3CPU --caches --l2cache --l1d_size=32kB --l1i_size=32kB --l2_size=256kB --l1d_assoc=8 --l1i_assoc=8 --l2_assoc=16 --maxinsts=250000000 --prog-interval=300Hz

info: Standard input is not a terminal, disabling listeners.
Benchmark- 0   roms
Selected benchmark
--> roms
CMD: ['/opt/spec2017/benchspec/CPU/554.roms_r/run/run_base_refrate_gem5_se-m64.0000/roms_r_base.gem5_se-m64']
CWD: /opt/spec2017/benchspec/CPU/554.roms_r/run/run_base_refrate_gem5_se-m64.0000/
Process stdout file: /home/user/PrIDE/performance/gem5/stats/pride_multiprogram_16GBmem_250Mn.SPEC2017.C4/RFM5.BR2.4C/mix12/mix12.out_0
Process stderr file: /home/user/PrIDE/performance/gem5/stats/pride_multiprogram_16GBmem_250Mn.SPEC2017.C4/RFM5.BR2.4C/mix12/mix12.err_0
Benchmark- 1   mcf
Selected benchmark
--> mcf
CMD: ['/opt/spec2017/benchspec/CPU/505.mcf_r/run/run_base_refrate_gem5_se-m64.0000/mcf_r_base.gem5_se-m64', '/opt/spec2017/benchspec/CPU/505.mcf_r/run/run_base_refrate_gem5_se-m64.0000/inp.in']
CWD: /opt/spec2017/benchspec/CPU/505.mcf_r/run/run_base_refrate_gem5_se-m64.0000/
Process stdout file: /home/user/PrIDE/performance/gem5/stats/pride_multiprogram_16GBmem_250Mn.SPEC2017.C4/RFM5.BR2.4C/mix12/mix12.out_1
Process stderr file: /home/user/PrIDE/performance/gem5/stats/pride_multiprogram_16GBmem_250Mn.SPEC2017.C4/RFM5.BR2.4C/mix12/mix12.err_1
Benchmark- 2   imagick
Selected benchmark
--> imagick
CMD: ['/opt/spec2017/benchspec/CPU/538.imagick_r/run/run_base_refrate_gem5_se-m64.0000/imagick_r_base.gem5_se-m64', '-limit', 'disk', '0', '/opt/spec2017/benchspec/CPU/538.imagick_r/run/run_base_refrate_gem5_se-m64.0000/refrate_input.tga', '-edge', '41', '-resample', '181%', '-emboss', '31', '-colorspace', 'YUV', '-mean-shift', '19x19+15%', '-resize', '30%', '/opt/spec2017/benchspec/CPU/538.imagick_r/run/run_base_refrate_gem5_se-m64.0000/refrate_output.tga']
CWD: /opt/spec2017/benchspec/CPU/538.imagick_r/run/run_base_refrate_gem5_se-m64.0000/
Process stdout file: /home/user/PrIDE/performance/gem5/stats/pride_multiprogram_16GBmem_250Mn.SPEC2017.C4/RFM5.BR2.4C/mix12/mix12.out_2
Process stderr file: /home/user/PrIDE/performance/gem5/stats/pride_multiprogram_16GBmem_250Mn.SPEC2017.C4/RFM5.BR2.4C/mix12/mix12.err_2
Benchmark- 3   blender
Selected benchmark
--> blender
CMD: ['/opt/spec2017/benchspec/CPU/526.blender_r/run/run_base_refrate_gem5_se-m64.0000/blender_r_base.gem5_se-m64', '/opt/spec2017/benchspec/CPU/526.blender_r/run/run_base_refrate_gem5_se-m64.0000/sh3_no_char.blend', '--render-output', 'sh3_no_char_', '--threads', '1', '-b', '-F', 'RAWTGA', '-s', '849', '-e', '849', '-a']
CWD: /opt/spec2017/benchspec/CPU/526.blender_r/run/run_base_refrate_gem5_se-m64.0000/
Process stdout file: /home/user/PrIDE/performance/gem5/stats/pride_multiprogram_16GBmem_250Mn.SPEC2017.C4/RFM5.BR2.4C/mix12/mix12.out_3
Process stderr file: /home/user/PrIDE/performance/gem5/stats/pride_multiprogram_16GBmem_250Mn.SPEC2017.C4/RFM5.BR2.4C/mix12/mix12.err_3
Workload-0: 
['/opt/spec2017/benchspec/CPU/554.roms_r/run/run_base_refrate_gem5_se-m64.0000/roms_r_base.gem5_se-m64']
Workload-1: 
['/opt/spec2017/benchspec/CPU/505.mcf_r/run/run_base_refrate_gem5_se-m64.0000/mcf_r_base.gem5_se-m64', '/opt/spec2017/benchspec/CPU/505.mcf_r/run/run_base_refrate_gem5_se-m64.0000/inp.in']
Workload-2: 
['/opt/spec2017/benchspec/CPU/538.imagick_r/run/run_base_refrate_gem5_se-m64.0000/imagick_r_base.gem5_se-m64', '-limit', 'disk', '0', '/opt/spec2017/benchspec/CPU/538.imagick_r/run/run_base_refrate_gem5_se-m64.0000/refrate_input.tga', '-edge', '41', '-resample', '181%', '-emboss', '31', '-colorspace', 'YUV', '-mean-shift', '19x19+15%', '-resize', '30%', '/opt/spec2017/benchspec/CPU/538.imagick_r/run/run_base_refrate_gem5_se-m64.0000/refrate_output.tga']
Workload-3: 
['/opt/spec2017/benchspec/CPU/526.blender_r/run/run_base_refrate_gem5_se-m64.0000/blender_r_base.gem5_se-m64', '/opt/spec2017/benchspec/CPU/526.blender_r/run/run_base_refrate_gem5_se-m64.0000/sh3_no_char.blend', '--render-output', 'sh3_no_char_', '--threads', '1', '-b', '-F', 'RAWTGA', '-s', '849', '-e', '849', '-a']
defense_enable:  True  detector:  MG  mitigation:  RFM  threshold:  800
mg_entries:  1700
rfm_maxacts_per_trefi:  79 rfm_per_trefi:  5 rfm_blast_radius:  2
Switch at curTick count:10000
warn: membus.master is deprecated. `master` is now called `mem_side_ports`
warn: No dot file generated. Please install pydot to generate the dot file and pdf.
info: Entering event queue @ 15651257077665.  Starting simulation...
info: Entering event queue @ 15651257087665.  Starting simulation...
warn: PowerState: Already in the requested power state, request ignored
Switched CPUS @ tick 15651257087665
switching cpus
**** REAL SIMULATION ****
info: Entering event queue @ 15651257088321.  Starting simulation...
15654590410998: Event_285: system.switch_cpus3 progress event, total committed:37111874, progress insts committed: 37111874, IPC: 03.70748
15654590410998: Event_284: system.switch_cpus2 progress event, total committed:51485972, progress insts committed: 51485972, IPC: 05.14345
15654590410998: Event_283: system.switch_cpus1 progress event, total committed:10872617, progress insts committed: 10872617, IPC: 01.08617
15654590410998: Event_282: system.switch_cpus0 progress event, total committed:8850359, progress insts committed: 8850359, IPC: 0.884151
warn: MOVNTDQ: Ignoring non-temporal hint, modeling as cacheable!
15657923744331: Event_282: system.switch_cpus0 progress event, total committed:17923478, progress insts committed: 9073119, IPC: 0.906405
15657923744331: Event_283: system.switch_cpus1 progress event, total committed:22263010, progress insts committed: 11390393, IPC: 001.1379
15657923744331: Event_284: system.switch_cpus2 progress event, total committed:97887763, progress insts committed: 46401791, IPC: 04.63554
15657923744331: Event_285: system.switch_cpus3 progress event, total committed:75062538, progress insts committed: 37950664, IPC: 03.79127
15661257077664: Event_285: system.switch_cpus3 progress event, total committed:112574777, progress insts committed: 37512239, IPC: 03.74747
15661257077664: Event_284: system.switch_cpus2 progress event, total committed:121051835, progress insts committed: 23164072, IPC: 02.31409
15661257077664: Event_283: system.switch_cpus1 progress event, total committed:33546812, progress insts committed: 11283802, IPC: 01.12725
15661257077664: Event_282: system.switch_cpus0 progress event, total committed:26414427, progress insts committed: 8490949, IPC: 0.848246
15664590410997: Event_282: system.switch_cpus0 progress event, total committed:36014039, progress insts committed: 9599612, IPC: 0.959001
15664590410997: Event_283: system.switch_cpus1 progress event, total committed:42687581, progress insts committed: 9140769, IPC: 0.913163
15664590410997: Event_284: system.switch_cpus2 progress event, total committed:174027962, progress insts committed: 52976127, IPC: 05.29232
15664590410997: Event_285: system.switch_cpus3 progress event, total committed:148101363, progress insts committed: 35526586, IPC: 03.54911
15667923744330: Event_285: system.switch_cpus3 progress event, total committed:182783287, progress insts committed: 34681924, IPC: 03.46472
15667923744330: Event_284: system.switch_cpus2 progress event, total committed:226854567, progress insts committed: 52826605, IPC: 05.27738
15667923744330: Event_283: system.switch_cpus1 progress event, total committed:52713363, progress insts committed: 10025782, IPC: 01.00158
15667923744330: Event_282: system.switch_cpus0 progress event, total committed:45041817, progress insts committed: 9027778, IPC: 0.901875
15671257077663: Event_282: system.switch_cpus0 progress event, total committed:51799812, progress insts committed: 6757995, IPC: 0.675124
15671257077663: Event_283: system.switch_cpus1 progress event, total committed:62111150, progress insts committed: 9397787, IPC: 0.938839
15671257077663: Event_284: system.switch_cpus2 progress event, total committed:279718441, progress insts committed: 52863874, IPC: 005.2811
15671257077663: Event_285: system.switch_cpus3 progress event, total committed:218348736, progress insts committed: 35565449, IPC: 03.55299
15674590410996: Event_285: system.switch_cpus3 progress event, total committed:256698006, progress insts committed: 38349270, IPC: 03.83109
15674590410996: Event_284: system.switch_cpus2 progress event, total committed:332873291, progress insts committed: 53154850, IPC: 05.31017
15674590410996: Event_283: system.switch_cpus1 progress event, total committed:73939395, progress insts committed: 11828245, IPC: 01.18164
15674590410996: Event_282: system.switch_cpus0 progress event, total committed:78069534, progress insts committed: 26269722, IPC: 02.62435
15677923744329: Event_282: system.switch_cpus0 progress event, total committed:104573229, progress insts committed: 26503695, IPC: 02.64772
15677923744329: Event_283: system.switch_cpus1 progress event, total committed:85089708, progress insts committed: 11150313, IPC: 01.11392
15677923744329: Event_284: system.switch_cpus2 progress event, total committed:386002587, progress insts committed: 53129296, IPC: 05.30762
15677923744329: Event_285: system.switch_cpus3 progress event, total committed:295232794, progress insts committed: 38534788, IPC: 03.84963
Exiting @ tick 15680253872178 because a thread reached the max instruction count
