
---------- Begin Simulation Statistics ----------
final_tick                               15680245109949                       # Number of ticks from beginning of simulation (restored from checkpoints and never reset)
host_inst_rate                                 167514                       # Simulator instruction rate (inst/s)
host_mem_usage                               17386788                       # Number of bytes of host memory used
host_op_rate                                   286948                       # Simulator op (including micro ops) rate (op/s)
host_seconds                                  3346.68                       # Real time elapsed on the host
host_tick_rate                                8661723                       # Simulator tick rate (ticks/s)
sim_freq                                 1000000000000                       # Frequency of simulated ticks
sim_insts                                   560616481                       # Number of instructions simulated
sim_ops                                     960322043                       # Number of ops (including micro ops) simulated
sim_seconds                                  0.028988                       # Number of seconds simulated
sim_ticks                                 28987991325                       # Number of ticks simulated
system.cpu0.Branches                                1                       # Number of branches fetched
system.cpu0.committedInsts                         16                       # Number of instructions committed
system.cpu0.committedOps                           22                       # Number of ops (including micro ops) committed
system.cpu0.idle_fraction                           0                       # Percentage of idle cycles
system.cpu0.l2bus.snoop_filter.hit_multi_requests            3                       # Number of requests hitting in the snoop filter with multiple (>1) holders of the requested data.
system.cpu0.l2bus.snoop_filter.hit_multi_snoops            0                       # Number of snoops hitting in the snoop filter with multiple (>1) holders of the requested data.
system.cpu0.l2bus.snoop_filter.hit_single_requests      1357280                       # Number of requests hitting in the snoop filter with a single holder of the requested data.
system.cpu0.l2bus.snoop_filter.hit_single_snoops         1744                       # Number of snoops hitting in the snoop filter with a single holder of the requested data.
system.cpu0.l2bus.snoop_filter.tot_requests      2661146                       # Total number of requests made to the snoop filter.
system.cpu0.l2bus.snoop_filter.tot_snoops         1744                       # Total number of snoops made to the snoop filter.
system.cpu0.mmucache.mmubus.snoop_filter.hit_multi_requests            0                       # Number of requests hitting in the snoop filter with multiple (>1) holders of the requested data.
system.cpu0.mmucache.mmubus.snoop_filter.hit_multi_snoops            0                       # Number of snoops hitting in the snoop filter with multiple (>1) holders of the requested data.
system.cpu0.mmucache.mmubus.snoop_filter.hit_single_requests            0                       # Number of requests hitting in the snoop filter with a single holder of the requested data.
system.cpu0.mmucache.mmubus.snoop_filter.hit_single_snoops            0                       # Number of snoops hitting in the snoop filter with a single holder of the requested data.
system.cpu0.mmucache.mmubus.snoop_filter.tot_requests            0                       # Total number of requests made to the snoop filter.
system.cpu0.mmucache.mmubus.snoop_filter.tot_snoops            0                       # Total number of snoops made to the snoop filter.
system.cpu0.not_idle_fraction                       1                       # Percentage of non-idle cycles
system.cpu0.numCycles                              30                       # number of cpu cycles simulated
system.cpu0.numWorkItemsCompleted                   0                       # number of work items this cpu completed
system.cpu0.numWorkItemsStarted                     0                       # number of work items this cpu started
system.cpu0.num_busy_cycles                        30                       # Number of busy cycles
system.cpu0.num_cc_register_reads                   5                       # number of times the CC registers were read
system.cpu0.num_cc_register_writes                  6                       # number of times the CC registers were written
system.cpu0.num_conditional_control_insts            1                       # number of instructions that are conditional controls
system.cpu0.num_fp_alu_accesses                    13                       # Number of float alu accesses
system.cpu0.num_fp_insts                           13                       # number of float instructions
system.cpu0.num_fp_register_reads                  23                       # number of times the floating registers were read
system.cpu0.num_fp_register_writes                 12                       # number of times the floating registers were written
system.cpu0.num_func_calls                          0                       # number of times a function call or return occured
system.cpu0.num_idle_cycles                         0                       # Number of idle cycles
system.cpu0.num_int_alu_accesses                   14                       # Number of integer alu accesses
system.cpu0.num_int_insts                          14                       # number of integer instructions
system.cpu0.num_int_register_reads                 31                       # number of times the integer registers were read
system.cpu0.num_int_register_writes                 8                       # number of times the integer registers were written
system.cpu0.num_load_insts                          6                       # Number of load instructions
system.cpu0.num_mem_refs                            7                       # number of memory refs
system.cpu0.num_store_insts                         1                       # Number of store instructions
system.cpu0.num_vec_alu_accesses                    0                       # Number of vector alu accesses
system.cpu0.num_vec_insts                           0                       # number of vector instructions
system.cpu0.num_vec_register_reads                  0                       # number of times the vector registers were read
system.cpu0.num_vec_register_writes                 0                       # number of times the vector registers were written
system.cpu0.op_class::No_OpClass                    0      0.00%      0.00% # Class of executed instruction
system.cpu0.op_class::IntAlu                        9     40.91%     40.91% # Class of executed instruction
system.cpu0.op_class::IntMult                       0      0.00%     40.91% # Class of executed instruction
system.cpu0.op_class::IntDiv                        0      0.00%     40.91% # Class of executed instruction
system.cpu0.op_class::FloatAdd                      0      0.00%     40.91% # Class of executed instruction
system.cpu0.op_class::FloatCmp                      0      0.00%     40.91% # Class of executed instruction
system.cpu0.op_class::FloatCvt                      0      0.00%     40.91% # Class of executed instruction
system.cpu0.op_class::FloatMult                     0      0.00%     40.91% # Class of executed instruction
system.cpu0.op_class::FloatMultAcc                  0      0.00%     40.91% # Class of executed instruction
system.cpu0.op_class::FloatDiv                      0      0.00%     40.91% # Class of executed instruction
system.cpu0.op_class::FloatMisc                     0      0.00%     40.91% # Class of executed instruction
system.cpu0.op_class::FloatSqrt                     0      0.00%     40.91% # Class of executed instruction
system.cpu0.op_class::SimdAdd                       0      0.00%     40.91% # Class of executed instruction
system.cpu0.op_class::SimdAddAcc                    0      0.00%     40.91% # Class of executed instruction
system.cpu0.op_class::SimdAlu                       0      0.00%     40.91% # Class of executed instruction
system.cpu0.op_class::SimdCmp                       0      0.00%     40.91% # Class of executed instruction
system.cpu0.op_class::SimdCvt                       0      0.00%     40.91% # Class of executed instruction
system.cpu0.op_class::SimdMisc                      0      0.00%     40.91% # Class of executed instruction
system.cpu0.op_class::SimdMult                      0      0.00%     40.91% # Class of executed instruction
system.cpu0.op_class::SimdMultAcc                   0      0.00%     40.91% # Class of executed instruction
system.cpu0.op_class::SimdShift                     0      0.00%     40.91% # Class of executed instruction
system.cpu0.op_class::SimdShiftAcc                  0      0.00%     40.91% # Class of executed instruction
system.cpu0.op_class::SimdDiv                       0      0.00%     40.91% # Class of executed instruction
system.cpu0.op_class::SimdSqrt                      0      0.00%     40.91% # Class of executed instruction
system.cpu0.op_class::SimdFloatAdd                  4     18.18%     59.09% # Class of executed instruction
system.cpu0.op_class::SimdFloatAlu                  0      0.00%     59.09% # Class of executed instruction
system.cpu0.op_class::SimdFloatCmp                  0      0.00%     59.09% # Class of executed instruction
system.cpu0.op_class::SimdFloatCvt                  0      0.00%     59.09% # Class of executed instruction
system.cpu0.op_class::SimdFloatDiv                  0      0.00%     59.09% # Class of executed instruction
system.cpu0.op_class::SimdFloatMisc                 0      0.00%     59.09% # Class of executed instruction
system.cpu0.op_class::SimdFloatMult                 2      9.09%     68.18% # Class of executed instruction
system.cpu0.op_class::SimdFloatMultAcc              0      0.00%     68.18% # Class of executed instruction
system.cpu0.op_class::SimdFloatSqrt                 0      0.00%     68.18% # Class of executed instruction
system.cpu0.op_class::SimdReduceAdd                 0      0.00%     68.18% # Class of executed instruction
system.cpu0.op_class::SimdReduceAlu                 0      0.00%     68.18% # Class of executed instruction
system.cpu0.op_class::SimdReduceCmp                 0      0.00%     68.18% # Class of executed instruction
system.cpu0.op_class::SimdFloatReduceAdd            0      0.00%     68.18% # Class of executed instruction
system.cpu0.op_class::SimdFloatReduceCmp            0      0.00%     68.18% # Class of executed instruction
system.cpu0.op_class::SimdAes                       0      0.00%     68.18% # Class of executed instruction
system.cpu0.op_class::SimdAesMix                    0      0.00%     68.18% # Class of executed instruction
system.cpu0.op_class::SimdSha1Hash                  0      0.00%     68.18% # Class of executed instruction
system.cpu0.op_class::SimdSha1Hash2                 0      0.00%     68.18% # Class of executed instruction
system.cpu0.op_class::SimdSha256Hash                0      0.00%     68.18% # Class of executed instruction
system.cpu0.op_class::SimdSha256Hash2               0      0.00%     68.18% # Class of executed instruction
system.cpu0.op_class::SimdShaSigma2                 0      0.00%     68.18% # Class of executed instruction
system.cpu0.op_class::SimdShaSigma3                 0      0.00%     68.18% # Class of executed instruction
system.cpu0.op_class::SimdPredAlu                   0      0.00%     68.18% # Class of executed instruction
system.cpu0.op_class::MemRead                       2      9.09%     77.27% # Class of executed instruction
system.cpu0.op_class::MemWrite                      0      0.00%     77.27% # Class of executed instruction
system.cpu0.op_class::FloatMemRead                  4     18.18%     95.45% # Class of executed instruction
system.cpu0.op_class::FloatMemWrite                 1      4.55%    100.00% # Class of executed instruction
system.cpu0.op_class::IprAccess                     0      0.00%    100.00% # Class of executed instruction
system.cpu0.op_class::InstPrefetch                  0      0.00%    100.00% # Class of executed instruction
system.cpu0.op_class::total                        22                       # Class of executed instruction
system.cpu0.workload.numSyscalls                    0                       # Number of system calls
system.cpu1.Branches                                5                       # Number of branches fetched
system.cpu1.committedInsts                         15                       # Number of instructions committed
system.cpu1.committedOps                           27                       # Number of ops (including micro ops) committed
system.cpu1.idle_fraction                           0                       # Percentage of idle cycles
system.cpu1.l2bus.snoop_filter.hit_multi_requests           50                       # Number of requests hitting in the snoop filter with multiple (>1) holders of the requested data.
system.cpu1.l2bus.snoop_filter.hit_multi_snoops            1                       # Number of snoops hitting in the snoop filter with multiple (>1) holders of the requested data.
system.cpu1.l2bus.snoop_filter.hit_single_requests      1839943                       # Number of requests hitting in the snoop filter with a single holder of the requested data.
system.cpu1.l2bus.snoop_filter.hit_single_snoops          239                       # Number of snoops hitting in the snoop filter with a single holder of the requested data.
system.cpu1.l2bus.snoop_filter.tot_requests      3667398                       # Total number of requests made to the snoop filter.
system.cpu1.l2bus.snoop_filter.tot_snoops          240                       # Total number of snoops made to the snoop filter.
system.cpu1.mmucache.mmubus.snoop_filter.hit_multi_requests            0                       # Number of requests hitting in the snoop filter with multiple (>1) holders of the requested data.
system.cpu1.mmucache.mmubus.snoop_filter.hit_multi_snoops            0                       # Number of snoops hitting in the snoop filter with multiple (>1) holders of the requested data.
system.cpu1.mmucache.mmubus.snoop_filter.hit_single_requests            0                       # Number of requests hitting in the snoop filter with a single holder of the requested data.
system.cpu1.mmucache.mmubus.snoop_filter.hit_single_snoops            0                       # Number of snoops hitting in the snoop filter with a single holder of the requested data.
system.cpu1.mmucache.mmubus.snoop_filter.tot_requests            0                       # Total number of requests made to the snoop filter.
system.cpu1.mmucache.mmubus.snoop_filter.tot_snoops            0                       # Total number of snoops made to the snoop filter.
system.cpu1.not_idle_fraction                       1                       # Percentage of non-idle cycles
system.cpu1.numCycles                              32                       # number of cpu cycles simulated
system.cpu1.numWorkItemsCompleted                   0                       # number of work items this cpu completed
system.cpu1.numWorkItemsStarted                     0                       # number of work items this cpu started
system.cpu1.num_busy_cycles                        32                       # Number of busy cycles
system.cpu1.num_cc_register_reads                  16                       # number of times the CC registers were read
system.cpu1.num_cc_register_writes                  8                       # number of times the CC registers were written
system.cpu1.num_conditional_control_insts            3                       # number of instructions that are conditional controls
system.cpu1.num_fp_alu_accesses                     0                       # Number of float alu accesses
system.cpu1.num_fp_insts                            0                       # number of float instructions
system.cpu1.num_fp_register_reads                   0                       # number of times the floating registers were read
system.cpu1.num_fp_register_writes                  0                       # number of times the floating registers were written
system.cpu1.num_func_calls                          2                       # number of times a function call or return occured
system.cpu1.num_idle_cycles                         0                       # Number of idle cycles
system.cpu1.num_int_alu_accesses                   27                       # Number of integer alu accesses
system.cpu1.num_int_insts                          27                       # number of integer instructions
system.cpu1.num_int_register_reads                 52                       # number of times the integer registers were read
system.cpu1.num_int_register_writes                21                       # number of times the integer registers were written
system.cpu1.num_load_insts                          5                       # Number of load instructions
system.cpu1.num_mem_refs                            6                       # number of memory refs
system.cpu1.num_store_insts                         1                       # Number of store instructions
system.cpu1.num_vec_alu_accesses                    0                       # Number of vector alu accesses
system.cpu1.num_vec_insts                           0                       # number of vector instructions
system.cpu1.num_vec_register_reads                  0                       # number of times the vector registers were read
system.cpu1.num_vec_register_writes                 0                       # number of times the vector registers were written
system.cpu1.op_class::No_OpClass                    0      0.00%      0.00% # Class of executed instruction
system.cpu1.op_class::IntAlu                       21     77.78%     77.78% # Class of executed instruction
system.cpu1.op_class::IntMult                       0      0.00%     77.78% # Class of executed instruction
system.cpu1.op_class::IntDiv                        0      0.00%     77.78% # Class of executed instruction
system.cpu1.op_class::FloatAdd                      0      0.00%     77.78% # Class of executed instruction
system.cpu1.op_class::FloatCmp                      0      0.00%     77.78% # Class of executed instruction
system.cpu1.op_class::FloatCvt                      0      0.00%     77.78% # Class of executed instruction
system.cpu1.op_class::FloatMult                     0      0.00%     77.78% # Class of executed instruction
system.cpu1.op_class::FloatMultAcc                  0      0.00%     77.78% # Class of executed instruction
system.cpu1.op_class::FloatDiv                      0      0.00%     77.78% # Class of executed instruction
system.cpu1.op_class::FloatMisc                     0      0.00%     77.78% # Class of executed instruction
system.cpu1.op_class::FloatSqrt                     0      0.00%     77.78% # Class of executed instruction
system.cpu1.op_class::SimdAdd                       0      0.00%     77.78% # Class of executed instruction
system.cpu1.op_class::SimdAddAcc                    0      0.00%     77.78% # Class of executed instruction
system.cpu1.op_class::SimdAlu                       0      0.00%     77.78% # Class of executed instruction
system.cpu1.op_class::SimdCmp                       0      0.00%     77.78% # Class of executed instruction
system.cpu1.op_class::SimdCvt                       0      0.00%     77.78% # Class of executed instruction
system.cpu1.op_class::SimdMisc                      0      0.00%     77.78% # Class of executed instruction
system.cpu1.op_class::SimdMult                      0      0.00%     77.78% # Class of executed instruction
system.cpu1.op_class::SimdMultAcc                   0      0.00%     77.78% # Class of executed instruction
system.cpu1.op_class::SimdShift                     0      0.00%     77.78% # Class of executed instruction
system.cpu1.op_class::SimdShiftAcc                  0      0.00%     77.78% # Class of executed instruction
system.cpu1.op_class::SimdDiv                       0      0.00%     77.78% # Class of executed instruction
system.cpu1.op_class::SimdSqrt                      0      0.00%     77.78% # Class of executed instruction
system.cpu1.op_class::SimdFloatAdd                  0      0.00%     77.78% # Class of executed instruction
system.cpu1.op_class::SimdFloatAlu                  0      0.00%     77.78% # Class of executed instruction
system.cpu1.op_class::SimdFloatCmp                  0      0.00%     77.78% # Class of executed instruction
system.cpu1.op_class::SimdFloatCvt                  0      0.00%     77.78% # Class of executed instruction
system.cpu1.op_class::SimdFloatDiv                  0      0.00%     77.78% # Class of executed instruction
system.cpu1.op_class::SimdFloatMisc                 0      0.00%     77.78% # Class of executed instruction
system.cpu1.op_class::SimdFloatMult                 0      0.00%     77.78% # Class of executed instruction
system.cpu1.op_class::SimdFloatMultAcc              0      0.00%     77.78% # Class of executed instruction
system.cpu1.op_class::SimdFloatSqrt                 0      0.00%     77.78% # Class of executed instruction
system.cpu1.op_class::SimdReduceAdd                 0      0.00%     77.78% # Class of executed instruction
system.cpu1.op_class::SimdReduceAlu                 0      0.00%     77.78% # Class of executed instruction
system.cpu1.op_class::SimdReduceCmp                 0      0.00%     77.78% # Class of executed instruction
system.cpu1.op_class::SimdFloatReduceAdd            0      0.00%     77.78% # Class of executed instruction
system.cpu1.op_class::SimdFloatReduceCmp            0      0.00%     77.78% # Class of executed instruction
system.cpu1.op_class::SimdAes                       0      0.00%     77.78% # Class of executed instruction
system.cpu1.op_class::SimdAesMix                    0      0.00%     77.78% # Class of executed instruction
system.cpu1.op_class::SimdSha1Hash                  0      0.00%     77.78% # Class of executed instruction
system.cpu1.op_class::SimdSha1Hash2                 0      0.00%     77.78% # Class of executed instruction
system.cpu1.op_class::SimdSha256Hash                0      0.00%     77.78% # Class of executed instruction
system.cpu1.op_class::SimdSha256Hash2               0      0.00%     77.78% # Class of executed instruction
system.cpu1.op_class::SimdShaSigma2                 0      0.00%     77.78% # Class of executed instruction
system.cpu1.op_class::SimdShaSigma3                 0      0.00%     77.78% # Class of executed instruction
system.cpu1.op_class::SimdPredAlu                   0      0.00%     77.78% # Class of executed instruction
system.cpu1.op_class::MemRead                       5     18.52%     96.30% # Class of executed instruction
system.cpu1.op_class::MemWrite                      1      3.70%    100.00% # Class of executed instruction
system.cpu1.op_class::FloatMemRead                  0      0.00%    100.00% # Class of executed instruction
system.cpu1.op_class::FloatMemWrite                 0      0.00%    100.00% # Class of executed instruction
system.cpu1.op_class::IprAccess                     0      0.00%    100.00% # Class of executed instruction
system.cpu1.op_class::InstPrefetch                  0      0.00%    100.00% # Class of executed instruction
system.cpu1.op_class::total                        27                       # Class of executed instruction
system.cpu1.workload.numSyscalls                    0                       # Number of system calls
system.cpu2.Branches                                1                       # Number of branches fetched
system.cpu2.committedInsts                         15                       # Number of instructions committed
system.cpu2.committedOps                           25                       # Number of ops (including micro ops) committed
system.cpu2.idle_fraction                           0                       # Percentage of idle cycles
system.cpu2.l2bus.snoop_filter.hit_multi_requests            3                       # Number of requests hitting in the snoop filter with multiple (>1) holders of the requested data.
system.cpu2.l2bus.snoop_filter.hit_multi_snoops            0                       # Number of snoops hitting in the snoop filter with multiple (>1) holders of the requested data.
system.cpu2.l2bus.snoop_filter.hit_single_requests      2529404                       # Number of requests hitting in the snoop filter with a single holder of the requested data.
system.cpu2.l2bus.snoop_filter.hit_single_snoops          212                       # Number of snoops hitting in the snoop filter with a single holder of the requested data.
system.cpu2.l2bus.snoop_filter.tot_requests      5059512                       # Total number of requests made to the snoop filter.
system.cpu2.l2bus.snoop_filter.tot_snoops          212                       # Total number of snoops made to the snoop filter.
system.cpu2.mmucache.mmubus.snoop_filter.hit_multi_requests            0                       # Number of requests hitting in the snoop filter with multiple (>1) holders of the requested data.
system.cpu2.mmucache.mmubus.snoop_filter.hit_multi_snoops            0                       # Number of snoops hitting in the snoop filter with multiple (>1) holders of the requested data.
system.cpu2.mmucache.mmubus.snoop_filter.hit_single_requests            0                       # Number of requests hitting in the snoop filter with a single holder of the requested data.
system.cpu2.mmucache.mmubus.snoop_filter.hit_single_snoops            0                       # Number of snoops hitting in the snoop filter with a single holder of the requested data.
system.cpu2.mmucache.mmubus.snoop_filter.tot_requests            0                       # Total number of requests made to the snoop filter.
system.cpu2.mmucache.mmubus.snoop_filter.tot_snoops            0                       # Total number of snoops made to the snoop filter.
system.cpu2.not_idle_fraction                       1                       # Percentage of non-idle cycles
system.cpu2.numCycles                              32                       # number of cpu cycles simulated
system.cpu2.numWorkItemsCompleted                   0                       # number of work items this cpu completed
system.cpu2.numWorkItemsStarted                     0                       # number of work items this cpu started
system.cpu2.num_busy_cycles                        32                       # Number of busy cycles
system.cpu2.num_cc_register_reads                   7                       # number of times the CC registers were read
system.cpu2.num_cc_register_writes                  4                       # number of times the CC registers were written
system.cpu2.num_conditional_control_insts            1                       # number of instructions that are conditional controls
system.cpu2.num_fp_alu_accesses                    12                       # Number of float alu accesses
system.cpu2.num_fp_insts                           12                       # number of float instructions
system.cpu2.num_fp_register_reads                  23                       # number of times the floating registers were read
system.cpu2.num_fp_register_writes                 11                       # number of times the floating registers were written
system.cpu2.num_func_calls                          0                       # number of times a function call or return occured
system.cpu2.num_idle_cycles                         0                       # Number of idle cycles
system.cpu2.num_int_alu_accesses                   17                       # Number of integer alu accesses
system.cpu2.num_int_insts                          17                       # number of integer instructions
system.cpu2.num_int_register_reads                 32                       # number of times the integer registers were read
system.cpu2.num_int_register_writes                12                       # number of times the integer registers were written
system.cpu2.num_load_insts                          5                       # Number of load instructions
system.cpu2.num_mem_refs                            5                       # number of memory refs
system.cpu2.num_store_insts                         0                       # Number of store instructions
system.cpu2.num_vec_alu_accesses                    0                       # Number of vector alu accesses
system.cpu2.num_vec_insts                           0                       # number of vector instructions
system.cpu2.num_vec_register_reads                  0                       # number of times the vector registers were read
system.cpu2.num_vec_register_writes                 0                       # number of times the vector registers were written
system.cpu2.op_class::No_OpClass                    0      0.00%      0.00% # Class of executed instruction
system.cpu2.op_class::IntAlu                        9     36.00%     36.00% # Class of executed instruction
system.cpu2.op_class::IntMult                       0      0.00%     36.00% # Class of executed instruction
system.cpu2.op_class::IntDiv                        0      0.00%     36.00% # Class of executed instruction
system.cpu2.op_class::FloatAdd                      0      0.00%     36.00% # Class of executed instruction
system.cpu2.op_class::FloatCmp                      0      0.00%     36.00% # Class of executed instruction
system.cpu2.op_class::FloatCvt                      0      0.00%     36.00% # Class of executed instruction
system.cpu2.op_class::FloatMult                     0      0.00%     36.00% # Class of executed instruction
system.cpu2.op_class::FloatMultAcc                  0      0.00%     36.00% # Class of executed instruction
system.cpu2.op_class::FloatDiv                      0      0.00%     36.00% # Class of executed instruction
system.cpu2.op_class::FloatMisc                     0      0.00%     36.00% # Class of executed instruction
system.cpu2.op_class::FloatSqrt                     0      0.00%     36.00% # Class of executed instruction
system.cpu2.op_class::SimdAdd                       0      0.00%     36.00% # Class of executed instruction
system.cpu2.op_class::SimdAddAcc                    0      0.00%     36.00% # Class of executed instruction
system.cpu2.op_class::SimdAlu                       0      0.00%     36.00% # Class of executed instruction
system.cpu2.op_class::SimdCmp                       0      0.00%     36.00% # Class of executed instruction
system.cpu2.op_class::SimdCvt                       0      0.00%     36.00% # Class of executed instruction
system.cpu2.op_class::SimdMisc                      3     12.00%     48.00% # Class of executed instruction
system.cpu2.op_class::SimdMult                      0      0.00%     48.00% # Class of executed instruction
system.cpu2.op_class::SimdMultAcc                   0      0.00%     48.00% # Class of executed instruction
system.cpu2.op_class::SimdShift                     0      0.00%     48.00% # Class of executed instruction
system.cpu2.op_class::SimdShiftAcc                  0      0.00%     48.00% # Class of executed instruction
system.cpu2.op_class::SimdDiv                       0      0.00%     48.00% # Class of executed instruction
system.cpu2.op_class::SimdSqrt                      0      0.00%     48.00% # Class of executed instruction
system.cpu2.op_class::SimdFloatAdd                  2      8.00%     56.00% # Class of executed instruction
system.cpu2.op_class::SimdFloatAlu                  0      0.00%     56.00% # Class of executed instruction
system.cpu2.op_class::SimdFloatCmp                  0      0.00%     56.00% # Class of executed instruction
system.cpu2.op_class::SimdFloatCvt                  4     16.00%     72.00% # Class of executed instruction
system.cpu2.op_class::SimdFloatDiv                  0      0.00%     72.00% # Class of executed instruction
system.cpu2.op_class::SimdFloatMisc                 0      0.00%     72.00% # Class of executed instruction
system.cpu2.op_class::SimdFloatMult                 2      8.00%     80.00% # Class of executed instruction
system.cpu2.op_class::SimdFloatMultAcc              0      0.00%     80.00% # Class of executed instruction
system.cpu2.op_class::SimdFloatSqrt                 0      0.00%     80.00% # Class of executed instruction
system.cpu2.op_class::SimdReduceAdd                 0      0.00%     80.00% # Class of executed instruction
system.cpu2.op_class::SimdReduceAlu                 0      0.00%     80.00% # Class of executed instruction
system.cpu2.op_class::SimdReduceCmp                 0      0.00%     80.00% # Class of executed instruction
system.cpu2.op_class::SimdFloatReduceAdd            0      0.00%     80.00% # Class of executed instruction
system.cpu2.op_class::SimdFloatReduceCmp            0      0.00%     80.00% # Class of executed instruction
system.cpu2.op_class::SimdAes                       0      0.00%     80.00% # Class of executed instruction
system.cpu2.op_class::SimdAesMix                    0      0.00%     80.00% # Class of executed instruction
system.cpu2.op_class::SimdSha1Hash                  0      0.00%     80.00% # Class of executed instruction
system.cpu2.op_class::SimdSha1Hash2                 0      0.00%     80.00% # Class of executed instruction
system.cpu2.op_class::SimdSha256Hash                0      0.00%     80.00% # Class of executed instruction
system.cpu2.op_class::SimdSha256Hash2               0      0.00%     80.00% # Class of executed instruction
system.cpu2.op_class::SimdShaSigma2                 0      0.00%     80.00% # Class of executed instruction
system.cpu2.op_class::SimdShaSigma3                 0      0.00%     80.00% # Class of executed instruction
system.cpu2.op_class::SimdPredAlu                   0      0.00%     80.00% # Class of executed instruction
system.cpu2.op_class::MemRead                       4     16.00%     96.00% # Class of executed instruction
system.cpu2.op_class::MemWrite                      0      0.00%     96.00% # Class of executed instruction
system.cpu2.op_class::FloatMemRead                  1      4.00%    100.00% # Class of executed instruction
system.cpu2.op_class::FloatMemWrite                 0      0.00%    100.00% # Class of executed instruction
system.cpu2.op_class::IprAccess                     0      0.00%    100.00% # Class of executed instruction
system.cpu2.op_class::InstPrefetch                  0      0.00%    100.00% # Class of executed instruction
system.cpu2.op_class::total                        25                       # Class of executed instruction
system.cpu2.workload.numSyscalls                    0                       # Number of system calls
system.cpu3.Branches                                3                       # Number of branches fetched
system.cpu3.committedInsts                         16                       # Number of instructions committed
system.cpu3.committedOps                           27                       # Number of ops (including micro ops) committed
system.cpu3.idle_fraction                           0                       # Percentage of idle cycles
system.cpu3.l2bus.snoop_filter.hit_multi_requests          218                       # Number of requests hitting in the snoop filter with multiple (>1) holders of the requested data.
system.cpu3.l2bus.snoop_filter.hit_multi_snoops            0                       # Number of snoops hitting in the snoop filter with multiple (>1) holders of the requested data.
system.cpu3.l2bus.snoop_filter.hit_single_requests       300045                       # Number of requests hitting in the snoop filter with a single holder of the requested data.
system.cpu3.l2bus.snoop_filter.hit_single_snoops          415                       # Number of snoops hitting in the snoop filter with a single holder of the requested data.
system.cpu3.l2bus.snoop_filter.tot_requests       600971                       # Total number of requests made to the snoop filter.
system.cpu3.l2bus.snoop_filter.tot_snoops          415                       # Total number of snoops made to the snoop filter.
system.cpu3.mmucache.mmubus.snoop_filter.hit_multi_requests            0                       # Number of requests hitting in the snoop filter with multiple (>1) holders of the requested data.
system.cpu3.mmucache.mmubus.snoop_filter.hit_multi_snoops            0                       # Number of snoops hitting in the snoop filter with multiple (>1) holders of the requested data.
system.cpu3.mmucache.mmubus.snoop_filter.hit_single_requests            0                       # Number of requests hitting in the snoop filter with a single holder of the requested data.
system.cpu3.mmucache.mmubus.snoop_filter.hit_single_snoops            0                       # Number of snoops hitting in the snoop filter with a single holder of the requested data.
system.cpu3.mmucache.mmubus.snoop_filter.tot_requests            0                       # Total number of requests made to the snoop filter.
system.cpu3.mmucache.mmubus.snoop_filter.tot_snoops            0                       # Total number of snoops made to the snoop filter.
system.cpu3.not_idle_fraction                       1                       # Percentage of non-idle cycles
system.cpu3.numCycles                              30                       # number of cpu cycles simulated
system.cpu3.numWorkItemsCompleted                   0                       # number of work items this cpu completed
system.cpu3.numWorkItemsStarted                     0                       # number of work items this cpu started
system.cpu3.num_busy_cycles                        30                       # Number of busy cycles
system.cpu3.num_cc_register_reads                  22                       # number of times the CC registers were read
system.cpu3.num_cc_register_writes                 16                       # number of times the CC registers were written
system.cpu3.num_conditional_control_insts            3                       # number of instructions that are conditional controls
system.cpu3.num_fp_alu_accesses                     8                       # Number of float alu accesses
system.cpu3.num_fp_insts                            8                       # number of float instructions
system.cpu3.num_fp_register_reads                   2                       # number of times the floating registers were read
system.cpu3.num_fp_register_writes                  7                       # number of times the floating registers were written
system.cpu3.num_func_calls                          0                       # number of times a function call or return occured
system.cpu3.num_idle_cycles                         0                       # Number of idle cycles
system.cpu3.num_int_alu_accesses                   22                       # Number of integer alu accesses
system.cpu3.num_int_insts                          22                       # number of integer instructions
system.cpu3.num_int_register_reads                 41                       # number of times the integer registers were read
system.cpu3.num_int_register_writes                16                       # number of times the integer registers were written
system.cpu3.num_load_insts                          5                       # Number of load instructions
system.cpu3.num_mem_refs                            5                       # number of memory refs
system.cpu3.num_store_insts                         0                       # Number of store instructions
system.cpu3.num_vec_alu_accesses                    0                       # Number of vector alu accesses
system.cpu3.num_vec_insts                           0                       # number of vector instructions
system.cpu3.num_vec_register_reads                  0                       # number of times the vector registers were read
system.cpu3.num_vec_register_writes                 0                       # number of times the vector registers were written
system.cpu3.op_class::No_OpClass                    0      0.00%      0.00% # Class of executed instruction
system.cpu3.op_class::IntAlu                       17     62.96%     62.96% # Class of executed instruction
system.cpu3.op_class::IntMult                       0      0.00%     62.96% # Class of executed instruction
system.cpu3.op_class::IntDiv                        0      0.00%     62.96% # Class of executed instruction
system.cpu3.op_class::FloatAdd                      4     14.81%     77.78% # Class of executed instruction
system.cpu3.op_class::FloatCmp                      0      0.00%     77.78% # Class of executed instruction
system.cpu3.op_class::FloatCvt                      0      0.00%     77.78% # Class of executed instruction
system.cpu3.op_class::FloatMult                     0      0.00%     77.78% # Class of executed instruction
system.cpu3.op_class::FloatMultAcc                  0      0.00%     77.78% # Class of executed instruction
system.cpu3.op_class::FloatDiv                      0      0.00%     77.78% # Class of executed instruction
system.cpu3.op_class::FloatMisc                     0      0.00%     77.78% # Class of executed instruction
system.cpu3.op_class::FloatSqrt                     0      0.00%     77.78% # Class of executed instruction
system.cpu3.op_class::SimdAdd                       0      0.00%     77.78% # Class of executed instruction
system.cpu3.op_class::SimdAddAcc                    0      0.00%     77.78% # Class of executed instruction
system.cpu3.op_class::SimdAlu                       0      0.00%     77.78% # Class of executed instruction
system.cpu3.op_class::SimdCmp                       0      0.00%     77.78% # Class of executed instruction
system.cpu3.op_class::SimdCvt                       0      0.00%     77.78% # Class of executed instruction
system.cpu3.op_class::SimdMisc                      0      0.00%     77.78% # Class of executed instruction
system.cpu3.op_class::SimdMult                      0      0.00%     77.78% # Class of executed instruction
system.cpu3.op_class::SimdMultAcc                   0      0.00%     77.78% # Class of executed instruction
system.cpu3.op_class::SimdShift                     0      0.00%     77.78% # Class of executed instruction
system.cpu3.op_class::SimdShiftAcc                  0      0.00%     77.78% # Class of executed instruction
system.cpu3.op_class::SimdDiv                       0      0.00%     77.78% # Class of executed instruction
system.cpu3.op_class::SimdSqrt                      0      0.00%     77.78% # Class of executed instruction
system.cpu3.op_class::SimdFloatAdd                  0      0.00%     77.78% # Class of executed instruction
system.cpu3.op_class::SimdFloatAlu                  0      0.00%     77.78% # Class of executed instruction
system.cpu3.op_class::SimdFloatCmp                  0      0.00%     77.78% # Class of executed instruction
system.cpu3.op_class::SimdFloatCvt                  1      3.70%     81.48% # Class of executed instruction
system.cpu3.op_class::SimdFloatDiv                  0      0.00%     81.48% # Class of executed instruction
system.cpu3.op_class::SimdFloatMisc                 0      0.00%     81.48% # Class of executed instruction
system.cpu3.op_class::SimdFloatMult                 0      0.00%     81.48% # Class of executed instruction
system.cpu3.op_class::SimdFloatMultAcc              0      0.00%     81.48% # Class of executed instruction
system.cpu3.op_class::SimdFloatSqrt                 0      0.00%     81.48% # Class of executed instruction
system.cpu3.op_class::SimdReduceAdd                 0      0.00%     81.48% # Class of executed instruction
system.cpu3.op_class::SimdReduceAlu                 0      0.00%     81.48% # Class of executed instruction
system.cpu3.op_class::SimdReduceCmp                 0      0.00%     81.48% # Class of executed instruction
system.cpu3.op_class::SimdFloatReduceAdd            0      0.00%     81.48% # Class of executed instruction
system.cpu3.op_class::SimdFloatReduceCmp            0      0.00%     81.48% # Class of executed instruction
system.cpu3.op_class::SimdAes                       0      0.00%     81.48% # Class of executed instruction
system.cpu3.op_class::SimdAesMix                    0      0.00%     81.48% # Class of executed instruction
system.cpu3.op_class::SimdSha1Hash                  0      0.00%     81.48% # Class of executed instruction
system.cpu3.op_class::SimdSha1Hash2                 0      0.00%     81.48% # Class of executed instruction
system.cpu3.op_class::SimdSha256Hash                0      0.00%     81.48% # Class of executed instruction
system.cpu3.op_class::SimdSha256Hash2               0      0.00%     81.48% # Class of executed instruction
system.cpu3.op_class::SimdShaSigma2                 0      0.00%     81.48% # Class of executed instruction
system.cpu3.op_class::SimdShaSigma3                 0      0.00%     81.48% # Class of executed instruction
system.cpu3.op_class::SimdPredAlu                   0      0.00%     81.48% # Class of executed instruction
system.cpu3.op_class::MemRead                       2      7.41%     88.89% # Class of executed instruction
system.cpu3.op_class::MemWrite                      0      0.00%     88.89% # Class of executed instruction
system.cpu3.op_class::FloatMemRead                  3     11.11%    100.00% # Class of executed instruction
system.cpu3.op_class::FloatMemWrite                 0      0.00%    100.00% # Class of executed instruction
system.cpu3.op_class::IprAccess                     0      0.00%    100.00% # Class of executed instruction
system.cpu3.op_class::InstPrefetch                  0      0.00%    100.00% # Class of executed instruction
system.cpu3.op_class::total                        27                       # Class of executed instruction
system.cpu3.workload.numSyscalls                    0                       # Number of system calls
system.l3bus.snoop_filter.hit_multi_requests            0                       # Number of requests hitting in the snoop filter with multiple (>1) holders of the requested data.
system.l3bus.snoop_filter.hit_multi_snoops            0                       # Number of snoops hitting in the snoop filter with multiple (>1) holders of the requested data.
system.l3bus.snoop_filter.hit_single_requests      1886952                       # Number of requests hitting in the snoop filter with a single holder of the requested data.
system.l3bus.snoop_filter.hit_single_snoops            0                       # Number of snoops hitting in the snoop filter with a single holder of the requested data.
system.l3bus.snoop_filter.tot_requests        3791098                       # Total number of requests made to the snoop filter.
system.l3bus.snoop_filter.tot_snoops                0                       # Total number of snoops made to the snoop filter.
system.membus.snoop_filter.hit_multi_requests            0                       # Number of requests hitting in the snoop filter with multiple (>1) holders of the requested data.
system.membus.snoop_filter.hit_multi_snoops            0                       # Number of snoops hitting in the snoop filter with multiple (>1) holders of the requested data.
system.membus.snoop_filter.hit_single_requests       924506                       # Number of requests hitting in the snoop filter with a single holder of the requested data.
system.membus.snoop_filter.hit_single_snoops            0                       # Number of snoops hitting in the snoop filter with a single holder of the requested data.
system.membus.snoop_filter.tot_requests       1928849                       # Total number of requests made to the snoop filter.
system.membus.snoop_filter.tot_snoops               0                       # Total number of snoops made to the snoop filter.
system.switch_cpus0.cc_regfile_reads         37805138                       # number of cc regfile reads
system.switch_cpus0.cc_regfile_writes        31327209                       # number of cc regfile writes
system.switch_cpus0.committedInsts           79228266                       # Number of Instructions Simulated
system.switch_cpus0.committedOps            122330438                       # Number of Ops (including micro ops) Simulated
system.switch_cpus0.cpi                      1.098737                       # CPI: Cycles Per Instruction
system.switch_cpus0.cpi_total                1.098737                       # CPI: Total CPI of All Threads
system.switch_cpus0.fp_regfile_reads        101300175                       # number of floating regfile reads
system.switch_cpus0.fp_regfile_writes        50140193                       # number of floating regfile writes
system.switch_cpus0.idleCycles                  48308                       # Total number of cycles that the CPU has spent unscheduled due to idling
system.switch_cpus0.iew.branchMispredicts         7976                       # Number of branch mispredicts detected at execute
system.switch_cpus0.iew.exec_branches         8163528                       # Number of branches executed
system.switch_cpus0.iew.exec_nop                    0                       # number of nop insts executed
system.switch_cpus0.iew.exec_rate            1.406466                       # Inst execution rate
system.switch_cpus0.iew.exec_refs            29245165                       # number of memory reference insts executed
system.switch_cpus0.iew.exec_stores           8043929                       # Number of stores executed
system.switch_cpus0.iew.exec_swp                    0                       # number of swp insts executed
system.switch_cpus0.iew.iewBlockCycles       20999024                       # Number of cycles IEW is blocking
system.switch_cpus0.iew.iewDispLoadInsts     21218249                       # Number of dispatched load instructions
system.switch_cpus0.iew.iewDispNonSpecInsts            3                       # Number of dispatched non-speculative instructions
system.switch_cpus0.iew.iewDispSquashedInsts          527                       # Number of squashed instructions skipped by dispatch
system.switch_cpus0.iew.iewDispStoreInsts      8057800                       # Number of dispatched store instructions
system.switch_cpus0.iew.iewDispatchedInsts    122541777                       # Number of instructions dispatched to IQ
system.switch_cpus0.iew.iewExecLoadInsts     21201236                       # Number of load instructions executed
system.switch_cpus0.iew.iewExecSquashedInsts        19455                       # Number of squashed instructions skipped in execute
system.switch_cpus0.iew.iewExecutedInsts    122434263                       # Number of executed instructions
system.switch_cpus0.iew.iewIQFullEvents         85899                       # Number of times the IQ has become full, causing a stall
system.switch_cpus0.iew.iewIdleCycles               0                       # Number of cycles IEW is idle
system.switch_cpus0.iew.iewLSQFullEvents     10295707                       # Number of times the LSQ has become full, causing a stall
system.switch_cpus0.iew.iewSquashCycles          8418                       # Number of cycles IEW is squashing
system.switch_cpus0.iew.iewUnblockCycles     10449042                       # Number of cycles IEW is unblocking
system.switch_cpus0.iew.memOrderViolationEvents          542                       # Number of memory order violations
system.switch_cpus0.iew.predictedNotTakenIncorrect         1796                       # Number of branches that were predicted not taken incorrectly
system.switch_cpus0.iew.predictedTakenIncorrect         6180                       # Number of branches that were predicted taken incorrectly
system.switch_cpus0.iew.wb_consumers        152553014                       # num instructions consuming a value
system.switch_cpus0.iew.wb_count            122412554                       # cumulative count of insts written-back
system.switch_cpus0.iew.wb_fanout            0.601673                       # average fanout of values written-back
system.switch_cpus0.iew.wb_producers         91786989                       # num instructions producing a value
system.switch_cpus0.iew.wb_rate              1.406217                       # insts written-back per cycle
system.switch_cpus0.iew.wb_sent             122422514                       # cumulative count of insts sent to commit
system.switch_cpus0.int_regfile_reads       118630396                       # number of integer regfile reads
system.switch_cpus0.int_regfile_writes       54022145                       # number of integer regfile writes
system.switch_cpus0.ipc                      0.910136                       # IPC: Instructions Per Cycle
system.switch_cpus0.ipc_total                0.910136                       # IPC: Total IPC of All Threads
system.switch_cpus0.iq.FU_type_0::No_OpClass         6579      0.01%      0.01% # Type of FU issued
system.switch_cpus0.iq.FU_type_0::IntAlu     63436202     51.80%     51.81% # Type of FU issued
system.switch_cpus0.iq.FU_type_0::IntMult         2350      0.00%     51.81% # Type of FU issued
system.switch_cpus0.iq.FU_type_0::IntDiv            0      0.00%     51.81% # Type of FU issued
system.switch_cpus0.iq.FU_type_0::FloatAdd      1966465      1.61%     53.42% # Type of FU issued
system.switch_cpus0.iq.FU_type_0::FloatCmp            0      0.00%     53.42% # Type of FU issued
system.switch_cpus0.iq.FU_type_0::FloatCvt            0      0.00%     53.42% # Type of FU issued
system.switch_cpus0.iq.FU_type_0::FloatMult            0      0.00%     53.42% # Type of FU issued
system.switch_cpus0.iq.FU_type_0::FloatMultAcc            0      0.00%     53.42% # Type of FU issued
system.switch_cpus0.iq.FU_type_0::FloatDiv            0      0.00%     53.42% # Type of FU issued
system.switch_cpus0.iq.FU_type_0::FloatMisc            0      0.00%     53.42% # Type of FU issued
system.switch_cpus0.iq.FU_type_0::FloatSqrt            0      0.00%     53.42% # Type of FU issued
system.switch_cpus0.iq.FU_type_0::SimdAdd            0      0.00%     53.42% # Type of FU issued
system.switch_cpus0.iq.FU_type_0::SimdAddAcc            0      0.00%     53.42% # Type of FU issued
system.switch_cpus0.iq.FU_type_0::SimdAlu      2531384      2.07%     55.48% # Type of FU issued
system.switch_cpus0.iq.FU_type_0::SimdCmp            0      0.00%     55.48% # Type of FU issued
system.switch_cpus0.iq.FU_type_0::SimdCvt            0      0.00%     55.48% # Type of FU issued
system.switch_cpus0.iq.FU_type_0::SimdMisc      1181929      0.97%     56.45% # Type of FU issued
system.switch_cpus0.iq.FU_type_0::SimdMult            0      0.00%     56.45% # Type of FU issued
system.switch_cpus0.iq.FU_type_0::SimdMultAcc            0      0.00%     56.45% # Type of FU issued
system.switch_cpus0.iq.FU_type_0::SimdShift            0      0.00%     56.45% # Type of FU issued
system.switch_cpus0.iq.FU_type_0::SimdShiftAcc            0      0.00%     56.45% # Type of FU issued
system.switch_cpus0.iq.FU_type_0::SimdDiv            0      0.00%     56.45% # Type of FU issued
system.switch_cpus0.iq.FU_type_0::SimdSqrt            0      0.00%     56.45% # Type of FU issued
system.switch_cpus0.iq.FU_type_0::SimdFloatAdd      9510180      7.77%     64.22% # Type of FU issued
system.switch_cpus0.iq.FU_type_0::SimdFloatAlu            0      0.00%     64.22% # Type of FU issued
system.switch_cpus0.iq.FU_type_0::SimdFloatCmp       376832      0.31%     64.52% # Type of FU issued
system.switch_cpus0.iq.FU_type_0::SimdFloatCvt      2048002      1.67%     66.20% # Type of FU issued
system.switch_cpus0.iq.FU_type_0::SimdFloatDiv      2276348      1.86%     68.06% # Type of FU issued
system.switch_cpus0.iq.FU_type_0::SimdFloatMisc            0      0.00%     68.06% # Type of FU issued
system.switch_cpus0.iq.FU_type_0::SimdFloatMult      9452356      7.72%     75.77% # Type of FU issued
system.switch_cpus0.iq.FU_type_0::SimdFloatMultAcc            0      0.00%     75.77% # Type of FU issued
system.switch_cpus0.iq.FU_type_0::SimdFloatSqrt       409602      0.33%     76.11% # Type of FU issued
system.switch_cpus0.iq.FU_type_0::SimdReduceAdd            0      0.00%     76.11% # Type of FU issued
system.switch_cpus0.iq.FU_type_0::SimdReduceAlu            0      0.00%     76.11% # Type of FU issued
system.switch_cpus0.iq.FU_type_0::SimdReduceCmp            0      0.00%     76.11% # Type of FU issued
system.switch_cpus0.iq.FU_type_0::SimdFloatReduceAdd            0      0.00%     76.11% # Type of FU issued
system.switch_cpus0.iq.FU_type_0::SimdFloatReduceCmp            0      0.00%     76.11% # Type of FU issued
system.switch_cpus0.iq.FU_type_0::SimdAes            0      0.00%     76.11% # Type of FU issued
system.switch_cpus0.iq.FU_type_0::SimdAesMix            0      0.00%     76.11% # Type of FU issued
system.switch_cpus0.iq.FU_type_0::SimdSha1Hash            0      0.00%     76.11% # Type of FU issued
system.switch_cpus0.iq.FU_type_0::SimdSha1Hash2            0      0.00%     76.11% # Type of FU issued
system.switch_cpus0.iq.FU_type_0::SimdSha256Hash            0      0.00%     76.11% # Type of FU issued
system.switch_cpus0.iq.FU_type_0::SimdSha256Hash2            0      0.00%     76.11% # Type of FU issued
system.switch_cpus0.iq.FU_type_0::SimdShaSigma2            0      0.00%     76.11% # Type of FU issued
system.switch_cpus0.iq.FU_type_0::SimdShaSigma3            0      0.00%     76.11% # Type of FU issued
system.switch_cpus0.iq.FU_type_0::SimdPredAlu            0      0.00%     76.11% # Type of FU issued
system.switch_cpus0.iq.FU_type_0::MemRead      7610823      6.22%     82.32% # Type of FU issued
system.switch_cpus0.iq.FU_type_0::MemWrite      2805538      2.29%     84.62% # Type of FU issued
system.switch_cpus0.iq.FU_type_0::FloatMemRead     13599758     11.11%     95.72% # Type of FU issued
system.switch_cpus0.iq.FU_type_0::FloatMemWrite      5239370      4.28%    100.00% # Type of FU issued
system.switch_cpus0.iq.FU_type_0::IprAccess            0      0.00%    100.00% # Type of FU issued
system.switch_cpus0.iq.FU_type_0::InstPrefetch            0      0.00%    100.00% # Type of FU issued
system.switch_cpus0.iq.FU_type_0::total     122453718                       # Type of FU issued
system.switch_cpus0.iq.fp_alu_accesses       59055801                       # Number of floating point alu accesses
system.switch_cpus0.iq.fp_inst_queue_reads    117676599                       # Number of floating instruction queue reads
system.switch_cpus0.iq.fp_inst_queue_wakeup_accesses     58602907                       # Number of floating instruction queue wakeup accesses
system.switch_cpus0.iq.fp_inst_queue_writes     58771668                       # Number of floating instruction queue writes
system.switch_cpus0.iq.fu_busy_cnt            1201571                       # FU busy when requested
system.switch_cpus0.iq.fu_busy_rate          0.009812                       # FU busy rate (busy events/executed inst)
system.switch_cpus0.iq.fu_full::No_OpClass            0      0.00%      0.00% # attempts to use FU when none available
system.switch_cpus0.iq.fu_full::IntAlu         551005     45.86%     45.86% # attempts to use FU when none available
system.switch_cpus0.iq.fu_full::IntMult             0      0.00%     45.86% # attempts to use FU when none available
system.switch_cpus0.iq.fu_full::IntDiv              0      0.00%     45.86% # attempts to use FU when none available
system.switch_cpus0.iq.fu_full::FloatAdd            0      0.00%     45.86% # attempts to use FU when none available
system.switch_cpus0.iq.fu_full::FloatCmp            0      0.00%     45.86% # attempts to use FU when none available
system.switch_cpus0.iq.fu_full::FloatCvt            0      0.00%     45.86% # attempts to use FU when none available
system.switch_cpus0.iq.fu_full::FloatMult            0      0.00%     45.86% # attempts to use FU when none available
system.switch_cpus0.iq.fu_full::FloatMultAcc            0      0.00%     45.86% # attempts to use FU when none available
system.switch_cpus0.iq.fu_full::FloatDiv            0      0.00%     45.86% # attempts to use FU when none available
system.switch_cpus0.iq.fu_full::FloatMisc            0      0.00%     45.86% # attempts to use FU when none available
system.switch_cpus0.iq.fu_full::FloatSqrt            0      0.00%     45.86% # attempts to use FU when none available
system.switch_cpus0.iq.fu_full::SimdAdd             0      0.00%     45.86% # attempts to use FU when none available
system.switch_cpus0.iq.fu_full::SimdAddAcc            0      0.00%     45.86% # attempts to use FU when none available
system.switch_cpus0.iq.fu_full::SimdAlu         29785      2.48%     48.34% # attempts to use FU when none available
system.switch_cpus0.iq.fu_full::SimdCmp             0      0.00%     48.34% # attempts to use FU when none available
system.switch_cpus0.iq.fu_full::SimdCvt             0      0.00%     48.34% # attempts to use FU when none available
system.switch_cpus0.iq.fu_full::SimdMisc            0      0.00%     48.34% # attempts to use FU when none available
system.switch_cpus0.iq.fu_full::SimdMult            0      0.00%     48.34% # attempts to use FU when none available
system.switch_cpus0.iq.fu_full::SimdMultAcc            0      0.00%     48.34% # attempts to use FU when none available
system.switch_cpus0.iq.fu_full::SimdShift            0      0.00%     48.34% # attempts to use FU when none available
system.switch_cpus0.iq.fu_full::SimdShiftAcc            0      0.00%     48.34% # attempts to use FU when none available
system.switch_cpus0.iq.fu_full::SimdDiv             0      0.00%     48.34% # attempts to use FU when none available
system.switch_cpus0.iq.fu_full::SimdSqrt            0      0.00%     48.34% # attempts to use FU when none available
system.switch_cpus0.iq.fu_full::SimdFloatAdd        49592      4.13%     52.46% # attempts to use FU when none available
system.switch_cpus0.iq.fu_full::SimdFloatAlu            0      0.00%     52.46% # attempts to use FU when none available
system.switch_cpus0.iq.fu_full::SimdFloatCmp            0      0.00%     52.46% # attempts to use FU when none available
system.switch_cpus0.iq.fu_full::SimdFloatCvt            0      0.00%     52.46% # attempts to use FU when none available
system.switch_cpus0.iq.fu_full::SimdFloatDiv        18411      1.53%     54.00% # attempts to use FU when none available
system.switch_cpus0.iq.fu_full::SimdFloatMisc            0      0.00%     54.00% # attempts to use FU when none available
system.switch_cpus0.iq.fu_full::SimdFloatMult       104124      8.67%     62.66% # attempts to use FU when none available
system.switch_cpus0.iq.fu_full::SimdFloatMultAcc            0      0.00%     62.66% # attempts to use FU when none available
system.switch_cpus0.iq.fu_full::SimdFloatSqrt            0      0.00%     62.66% # attempts to use FU when none available
system.switch_cpus0.iq.fu_full::SimdReduceAdd            0      0.00%     62.66% # attempts to use FU when none available
system.switch_cpus0.iq.fu_full::SimdReduceAlu            0      0.00%     62.66% # attempts to use FU when none available
system.switch_cpus0.iq.fu_full::SimdReduceCmp            0      0.00%     62.66% # attempts to use FU when none available
system.switch_cpus0.iq.fu_full::SimdFloatReduceAdd            0      0.00%     62.66% # attempts to use FU when none available
system.switch_cpus0.iq.fu_full::SimdFloatReduceCmp            0      0.00%     62.66% # attempts to use FU when none available
system.switch_cpus0.iq.fu_full::SimdAes             0      0.00%     62.66% # attempts to use FU when none available
system.switch_cpus0.iq.fu_full::SimdAesMix            0      0.00%     62.66% # attempts to use FU when none available
system.switch_cpus0.iq.fu_full::SimdSha1Hash            0      0.00%     62.66% # attempts to use FU when none available
system.switch_cpus0.iq.fu_full::SimdSha1Hash2            0      0.00%     62.66% # attempts to use FU when none available
system.switch_cpus0.iq.fu_full::SimdSha256Hash            0      0.00%     62.66% # attempts to use FU when none available
system.switch_cpus0.iq.fu_full::SimdSha256Hash2            0      0.00%     62.66% # attempts to use FU when none available
system.switch_cpus0.iq.fu_full::SimdShaSigma2            0      0.00%     62.66% # attempts to use FU when none available
system.switch_cpus0.iq.fu_full::SimdShaSigma3            0      0.00%     62.66% # attempts to use FU when none available
system.switch_cpus0.iq.fu_full::SimdPredAlu            0      0.00%     62.66% # attempts to use FU when none available
system.switch_cpus0.iq.fu_full::MemRead        215409     17.93%     80.59% # attempts to use FU when none available
system.switch_cpus0.iq.fu_full::MemWrite         4169      0.35%     80.94% # attempts to use FU when none available
system.switch_cpus0.iq.fu_full::FloatMemRead       228202     18.99%     99.93% # attempts to use FU when none available
system.switch_cpus0.iq.fu_full::FloatMemWrite          874      0.07%    100.00% # attempts to use FU when none available
system.switch_cpus0.iq.fu_full::IprAccess            0      0.00%    100.00% # attempts to use FU when none available
system.switch_cpus0.iq.fu_full::InstPrefetch            0      0.00%    100.00% # attempts to use FU when none available
system.switch_cpus0.iq.int_alu_accesses      64592909                       # Number of integer alu accesses
system.switch_cpus0.iq.int_inst_queue_reads    215437943                       # Number of integer instruction queue reads
system.switch_cpus0.iq.int_inst_queue_wakeup_accesses     63809647                       # Number of integer instruction queue wakeup accesses
system.switch_cpus0.iq.int_inst_queue_writes     63981982                       # Number of integer instruction queue writes
system.switch_cpus0.iq.iqInstsAdded         122541768                       # Number of instructions added to the IQ (excludes non-spec)
system.switch_cpus0.iq.iqInstsIssued        122453718                       # Number of instructions issued
system.switch_cpus0.iq.iqNonSpecInstsAdded            9                       # Number of non-speculative instructions added to the IQ
system.switch_cpus0.iq.iqSquashedInstsExamined       211339                       # Number of squashed instructions iterated over during squash; mainly for profiling
system.switch_cpus0.iq.iqSquashedInstsIssued         2850                       # Number of squashed instructions issued
system.switch_cpus0.iq.iqSquashedNonSpecRemoved            9                       # Number of squashed non-spec instructions that were removed
system.switch_cpus0.iq.iqSquashedOperandsExamined       374252                       # Number of squashed operands that are examined and possibly removed from graph
system.switch_cpus0.iq.issued_per_cycle::samples     87002685                       # Number of insts issued each cycle
system.switch_cpus0.iq.issued_per_cycle::mean     1.407471                       # Number of insts issued each cycle
system.switch_cpus0.iq.issued_per_cycle::stdev     2.524811                       # Number of insts issued each cycle
system.switch_cpus0.iq.issued_per_cycle::underflows            0      0.00%      0.00% # Number of insts issued each cycle
system.switch_cpus0.iq.issued_per_cycle::0     61733556     70.96%     70.96% # Number of insts issued each cycle
system.switch_cpus0.iq.issued_per_cycle::1      2672251      3.07%     74.03% # Number of insts issued each cycle
system.switch_cpus0.iq.issued_per_cycle::2      2552632      2.93%     76.96% # Number of insts issued each cycle
system.switch_cpus0.iq.issued_per_cycle::3      2540528      2.92%     79.88% # Number of insts issued each cycle
system.switch_cpus0.iq.issued_per_cycle::4      3234039      3.72%     83.60% # Number of insts issued each cycle
system.switch_cpus0.iq.issued_per_cycle::5      3395125      3.90%     87.50% # Number of insts issued each cycle
system.switch_cpus0.iq.issued_per_cycle::6      3212791      3.69%     91.19% # Number of insts issued each cycle
system.switch_cpus0.iq.issued_per_cycle::7      3428012      3.94%     95.13% # Number of insts issued each cycle
system.switch_cpus0.iq.issued_per_cycle::8      4233751      4.87%    100.00% # Number of insts issued each cycle
system.switch_cpus0.iq.issued_per_cycle::overflows            0      0.00%    100.00% # Number of insts issued each cycle
system.switch_cpus0.iq.issued_per_cycle::min_value            0                       # Number of insts issued each cycle
system.switch_cpus0.iq.issued_per_cycle::max_value            8                       # Number of insts issued each cycle
system.switch_cpus0.iq.issued_per_cycle::total     87002685                       # Number of insts issued each cycle
system.switch_cpus0.iq.rate                  1.406690                       # Inst issue rate
system.switch_cpus0.iq.vec_alu_accesses             0                       # Number of vector alu accesses
system.switch_cpus0.iq.vec_inst_queue_reads            0                       # Number of vector instruction queue reads
system.switch_cpus0.iq.vec_inst_queue_wakeup_accesses            0                       # Number of vector instruction queue wakeup accesses
system.switch_cpus0.iq.vec_inst_queue_writes            0                       # Number of vector instruction queue writes
system.switch_cpus0.memDep0.conflictingLoads       718005                       # Number of conflicting loads.
system.switch_cpus0.memDep0.conflictingStores       679944                       # Number of conflicting stores.
system.switch_cpus0.memDep0.insertedLoads     21218249                       # Number of loads inserted to the mem dependence unit.
system.switch_cpus0.memDep0.insertedStores      8057800                       # Number of stores inserted to the mem dependence unit.
system.switch_cpus0.misc_regfile_reads       49722068                       # number of misc regfile reads
system.switch_cpus0.misc_regfile_writes             1                       # number of misc regfile writes
system.switch_cpus0.numCycles                87050993                       # number of cpu cycles simulated
system.switch_cpus0.numWorkItemsCompleted            0                       # number of work items this cpu completed
system.switch_cpus0.numWorkItemsStarted             0                       # number of work items this cpu started
system.switch_cpus0.timesIdled                    231                       # Number of times that the entire CPU went into an idle state and unscheduled itself
system.switch_cpus1.cc_regfile_reads         82489747                       # number of cc regfile reads
system.switch_cpus1.cc_regfile_writes        33805432                       # number of cc regfile writes
system.switch_cpus1.committedInsts           54214075                       # Number of Instructions Simulated
system.switch_cpus1.committedOps             93381611                       # Number of Ops (including micro ops) Simulated
system.switch_cpus1.cpi                      1.605690                       # CPI: Cycles Per Instruction
system.switch_cpus1.cpi_total                1.605690                       # CPI: Total CPI of All Threads
system.switch_cpus1.fp_regfile_writes              56                       # number of floating regfile writes
system.switch_cpus1.idleCycles                  15131                       # Total number of cycles that the CPU has spent unscheduled due to idling
system.switch_cpus1.iew.branchMispredicts      1290667                       # Number of branch mispredicts detected at execute
system.switch_cpus1.iew.exec_branches        21700835                       # Number of branches executed
system.switch_cpus1.iew.exec_nop                    0                       # number of nop insts executed
system.switch_cpus1.iew.exec_rate            1.719763                       # Inst execution rate
system.switch_cpus1.iew.exec_refs            37214710                       # number of memory reference insts executed
system.switch_cpus1.iew.exec_stores           7726823                       # Number of stores executed
system.switch_cpus1.iew.exec_swp                    0                       # number of swp insts executed
system.switch_cpus1.iew.iewBlockCycles       36336374                       # Number of cycles IEW is blocking
system.switch_cpus1.iew.iewDispLoadInsts     34144318                       # Number of dispatched load instructions
system.switch_cpus1.iew.iewDispNonSpecInsts            0                       # Number of dispatched non-speculative instructions
system.switch_cpus1.iew.iewDispSquashedInsts        46446                       # Number of squashed instructions skipped by dispatch
system.switch_cpus1.iew.iewDispStoreInsts      8901342                       # Number of dispatched store instructions
system.switch_cpus1.iew.iewDispatchedInsts    171475963                       # Number of instructions dispatched to IQ
system.switch_cpus1.iew.iewExecLoadInsts     29487887                       # Number of load instructions executed
system.switch_cpus1.iew.iewExecSquashedInsts      3857727                       # Number of squashed instructions skipped in execute
system.switch_cpus1.iew.iewExecutedInsts    149707108                       # Number of executed instructions
system.switch_cpus1.iew.iewIQFullEvents        165933                       # Number of times the IQ has become full, causing a stall
system.switch_cpus1.iew.iewIdleCycles               0                       # Number of cycles IEW is idle
system.switch_cpus1.iew.iewLSQFullEvents      3356587                       # Number of times the LSQ has become full, causing a stall
system.switch_cpus1.iew.iewSquashCycles       1250476                       # Number of cycles IEW is squashing
system.switch_cpus1.iew.iewUnblockCycles      3659231                       # Number of cycles IEW is unblocking
system.switch_cpus1.iew.memOrderViolationEvents         5743                       # Number of memory order violations
system.switch_cpus1.iew.predictedNotTakenIncorrect       710095                       # Number of branches that were predicted not taken incorrectly
system.switch_cpus1.iew.predictedTakenIncorrect       580572                       # Number of branches that were predicted taken incorrectly
system.switch_cpus1.iew.wb_consumers        156700055                       # num instructions consuming a value
system.switch_cpus1.iew.wb_count            147831391                       # cumulative count of insts written-back
system.switch_cpus1.iew.wb_fanout            0.654916                       # average fanout of values written-back
system.switch_cpus1.iew.wb_producers        102625393                       # num instructions producing a value
system.switch_cpus1.iew.wb_rate              1.698216                       # insts written-back per cycle
system.switch_cpus1.iew.wb_sent             148841766                       # cumulative count of insts sent to commit
system.switch_cpus1.int_regfile_reads       214451713                       # number of integer regfile reads
system.switch_cpus1.int_regfile_writes      120287860                       # number of integer regfile writes
system.switch_cpus1.ipc                      0.622785                       # IPC: Instructions Per Cycle
system.switch_cpus1.ipc_total                0.622785                       # IPC: Total IPC of All Threads
system.switch_cpus1.iq.FU_type_0::No_OpClass        64306      0.04%      0.04% # Type of FU issued
system.switch_cpus1.iq.FU_type_0::IntAlu    114105881     74.30%     74.35% # Type of FU issued
system.switch_cpus1.iq.FU_type_0::IntMult       157239      0.10%     74.45% # Type of FU issued
system.switch_cpus1.iq.FU_type_0::IntDiv       398613      0.26%     74.71% # Type of FU issued
system.switch_cpus1.iq.FU_type_0::FloatAdd            0      0.00%     74.71% # Type of FU issued
system.switch_cpus1.iq.FU_type_0::FloatCmp            0      0.00%     74.71% # Type of FU issued
system.switch_cpus1.iq.FU_type_0::FloatCvt            0      0.00%     74.71% # Type of FU issued
system.switch_cpus1.iq.FU_type_0::FloatMult            0      0.00%     74.71% # Type of FU issued
system.switch_cpus1.iq.FU_type_0::FloatMultAcc            0      0.00%     74.71% # Type of FU issued
system.switch_cpus1.iq.FU_type_0::FloatDiv            0      0.00%     74.71% # Type of FU issued
system.switch_cpus1.iq.FU_type_0::FloatMisc            0      0.00%     74.71% # Type of FU issued
system.switch_cpus1.iq.FU_type_0::FloatSqrt            0      0.00%     74.71% # Type of FU issued
system.switch_cpus1.iq.FU_type_0::SimdAdd            0      0.00%     74.71% # Type of FU issued
system.switch_cpus1.iq.FU_type_0::SimdAddAcc            0      0.00%     74.71% # Type of FU issued
system.switch_cpus1.iq.FU_type_0::SimdAlu            0      0.00%     74.71% # Type of FU issued
system.switch_cpus1.iq.FU_type_0::SimdCmp            0      0.00%     74.71% # Type of FU issued
system.switch_cpus1.iq.FU_type_0::SimdCvt            0      0.00%     74.71% # Type of FU issued
system.switch_cpus1.iq.FU_type_0::SimdMisc            0      0.00%     74.71% # Type of FU issued
system.switch_cpus1.iq.FU_type_0::SimdMult            0      0.00%     74.71% # Type of FU issued
system.switch_cpus1.iq.FU_type_0::SimdMultAcc            0      0.00%     74.71% # Type of FU issued
system.switch_cpus1.iq.FU_type_0::SimdShift            0      0.00%     74.71% # Type of FU issued
system.switch_cpus1.iq.FU_type_0::SimdShiftAcc            0      0.00%     74.71% # Type of FU issued
system.switch_cpus1.iq.FU_type_0::SimdDiv            0      0.00%     74.71% # Type of FU issued
system.switch_cpus1.iq.FU_type_0::SimdSqrt            0      0.00%     74.71% # Type of FU issued
system.switch_cpus1.iq.FU_type_0::SimdFloatAdd            0      0.00%     74.71% # Type of FU issued
system.switch_cpus1.iq.FU_type_0::SimdFloatAlu            0      0.00%     74.71% # Type of FU issued
system.switch_cpus1.iq.FU_type_0::SimdFloatCmp            0      0.00%     74.71% # Type of FU issued
system.switch_cpus1.iq.FU_type_0::SimdFloatCvt            0      0.00%     74.71% # Type of FU issued
system.switch_cpus1.iq.FU_type_0::SimdFloatDiv            0      0.00%     74.71% # Type of FU issued
system.switch_cpus1.iq.FU_type_0::SimdFloatMisc            0      0.00%     74.71% # Type of FU issued
system.switch_cpus1.iq.FU_type_0::SimdFloatMult            0      0.00%     74.71% # Type of FU issued
system.switch_cpus1.iq.FU_type_0::SimdFloatMultAcc            0      0.00%     74.71% # Type of FU issued
system.switch_cpus1.iq.FU_type_0::SimdFloatSqrt            0      0.00%     74.71% # Type of FU issued
system.switch_cpus1.iq.FU_type_0::SimdReduceAdd            0      0.00%     74.71% # Type of FU issued
system.switch_cpus1.iq.FU_type_0::SimdReduceAlu            0      0.00%     74.71% # Type of FU issued
system.switch_cpus1.iq.FU_type_0::SimdReduceCmp            0      0.00%     74.71% # Type of FU issued
system.switch_cpus1.iq.FU_type_0::SimdFloatReduceAdd            0      0.00%     74.71% # Type of FU issued
system.switch_cpus1.iq.FU_type_0::SimdFloatReduceCmp            0      0.00%     74.71% # Type of FU issued
system.switch_cpus1.iq.FU_type_0::SimdAes            0      0.00%     74.71% # Type of FU issued
[...]
system.switch_cpus3.commit.numCommittedDist::stdev     3.372737                       # Number of insts commited each cycle
system.switch_cpus3.commit.numCommittedDist::underflows            0      0.00%      0.00% # Number of insts commited each cycle
system.switch_cpus3.commit.numCommittedDist::0     23107204     27.55%     27.55% # Number of insts commited each cycle
system.switch_cpus3.commit.numCommittedDist::1      9945907     11.86%     39.41% # Number of insts commited each cycle
system.switch_cpus3.commit.numCommittedDist::2      3855774      4.60%     44.01% # Number of insts commited each cycle
system.switch_cpus3.commit.numCommittedDist::3      6844981      8.16%     52.17% # Number of insts commited each cycle
system.switch_cpus3.commit.numCommittedDist::4      6853625      8.17%     60.34% # Number of insts commited each cycle
system.switch_cpus3.commit.numCommittedDist::5      1657302      1.98%     62.32% # Number of insts commited each cycle
system.switch_cpus3.commit.numCommittedDist::6      2041748      2.43%     64.76% # Number of insts commited each cycle
system.switch_cpus3.commit.numCommittedDist::7      1132532      1.35%     66.11% # Number of insts commited each cycle
system.switch_cpus3.commit.numCommittedDist::8     28425361     33.89%    100.00% # Number of insts commited each cycle
system.switch_cpus3.commit.numCommittedDist::overflows            0      0.00%    100.00% # Number of insts commited each cycle
system.switch_cpus3.commit.numCommittedDist::min_value            0                       # Number of insts commited each cycle
system.switch_cpus3.commit.numCommittedDist::max_value            8                       # Number of insts commited each cycle
system.switch_cpus3.commit.numCommittedDist::total     83864434                       # Number of insts commited each cycle
system.switch_cpus3.commit.instsCommitted    177174077                       # Number of instructions committed
system.switch_cpus3.commit.opsCommitted     321474508                       # Number of ops (including micro ops) committed
system.switch_cpus3.commit.memRefs           62348383                       # Number of memory references committed
system.switch_cpus3.commit.loads             44124515                       # Number of loads committed
system.switch_cpus3.commit.amos                     0                       # Number of atomic instructions committed
system.switch_cpus3.commit.membars                  0                       # Number of memory barriers committed
system.switch_cpus3.commit.branches          30707089                       # Number of branches committed
system.switch_cpus3.commit.vector                   0                       # Number of committed Vector instructions.
system.switch_cpus3.commit.floating         102739018                       # Number of committed floating point instructions.
system.switch_cpus3.commit.integer          246101696                       # Number of committed integer instructions.
system.switch_cpus3.commit.functionCalls      2436188                       # Number of function calls committed.
system.switch_cpus3.commit.committedInstType_0::No_OpClass        39566      0.01%      0.01% # Class of committed instruction
system.switch_cpus3.commit.committedInstType_0::IntAlu    199296167     61.99%     62.01% # Class of committed instruction
system.switch_cpus3.commit.committedInstType_0::IntMult            0      0.00%     62.01% # Class of committed instruction
system.switch_cpus3.commit.committedInstType_0::IntDiv            0      0.00%     62.01% # Class of committed instruction
system.switch_cpus3.commit.committedInstType_0::FloatAdd     24911885      7.75%     69.76% # Class of committed instruction
system.switch_cpus3.commit.committedInstType_0::FloatCmp            0      0.00%     69.76% # Class of committed instruction
system.switch_cpus3.commit.committedInstType_0::FloatCvt            0      0.00%     69.76% # Class of committed instruction
system.switch_cpus3.commit.committedInstType_0::FloatMult            0      0.00%     69.76% # Class of committed instruction
system.switch_cpus3.commit.committedInstType_0::FloatMultAcc            0      0.00%     69.76% # Class of committed instruction
system.switch_cpus3.commit.committedInstType_0::FloatDiv            0      0.00%     69.76% # Class of committed instruction
system.switch_cpus3.commit.committedInstType_0::FloatMisc            0      0.00%     69.76% # Class of committed instruction
system.switch_cpus3.commit.committedInstType_0::FloatSqrt            0      0.00%     69.76% # Class of committed instruction
system.switch_cpus3.commit.committedInstType_0::SimdAdd            0      0.00%     69.76% # Class of committed instruction
system.switch_cpus3.commit.committedInstType_0::SimdAddAcc            0      0.00%     69.76% # Class of committed instruction
system.switch_cpus3.commit.committedInstType_0::SimdAlu      4006686      1.25%     71.00% # Class of committed instruction
system.switch_cpus3.commit.committedInstType_0::SimdCmp            0      0.00%     71.00% # Class of committed instruction
system.switch_cpus3.commit.committedInstType_0::SimdCvt            0      0.00%     71.00% # Class of committed instruction
system.switch_cpus3.commit.committedInstType_0::SimdMisc      1289794      0.40%     71.40% # Class of committed instruction
system.switch_cpus3.commit.committedInstType_0::SimdMult            0      0.00%     71.40% # Class of committed instruction
system.switch_cpus3.commit.committedInstType_0::SimdMultAcc            0      0.00%     71.40% # Class of committed instruction
system.switch_cpus3.commit.committedInstType_0::SimdShift            0      0.00%     71.40% # Class of committed instruction
system.switch_cpus3.commit.committedInstType_0::SimdShiftAcc            0      0.00%     71.40% # Class of committed instruction
system.switch_cpus3.commit.committedInstType_0::SimdDiv            0      0.00%     71.40% # Class of committed instruction
system.switch_cpus3.commit.committedInstType_0::SimdSqrt            0      0.00%     71.40% # Class of committed instruction
system.switch_cpus3.commit.committedInstType_0::SimdFloatAdd     10083013      3.14%     74.54% # Class of committed instruction
system.switch_cpus3.commit.committedInstType_0::SimdFloatAlu            0      0.00%     74.54% # Class of committed instruction
system.switch_cpus3.commit.committedInstType_0::SimdFloatCmp          130      0.00%     74.54% # Class of committed instruction
system.switch_cpus3.commit.committedInstType_0::SimdFloatCvt     12299543      3.83%     78.37% # Class of committed instruction
system.switch_cpus3.commit.committedInstType_0::SimdFloatDiv      1080880      0.34%     78.70% # Class of committed instruction
system.switch_cpus3.commit.committedInstType_0::SimdFloatMisc            0      0.00%     78.70% # Class of committed instruction
system.switch_cpus3.commit.committedInstType_0::SimdFloatMult      5902285      1.84%     80.54% # Class of committed instruction
system.switch_cpus3.commit.committedInstType_0::SimdFloatMultAcc            0      0.00%     80.54% # Class of committed instruction
system.switch_cpus3.commit.committedInstType_0::SimdFloatSqrt       216176      0.07%     80.61% # Class of committed instruction
system.switch_cpus3.commit.committedInstType_0::SimdReduceAdd            0      0.00%     80.61% # Class of committed instruction
system.switch_cpus3.commit.committedInstType_0::SimdReduceAlu            0      0.00%     80.61% # Class of committed instruction
system.switch_cpus3.commit.committedInstType_0::SimdReduceCmp            0      0.00%     80.61% # Class of committed instruction
system.switch_cpus3.commit.committedInstType_0::SimdFloatReduceAdd            0      0.00%     80.61% # Class of committed instruction
system.switch_cpus3.commit.committedInstType_0::SimdFloatReduceCmp            0      0.00%     80.61% # Class of committed instruction
system.switch_cpus3.commit.committedInstType_0::SimdAes            0      0.00%     80.61% # Class of committed instruction
system.switch_cpus3.commit.committedInstType_0::SimdAesMix            0      0.00%     80.61% # Class of committed instruction
system.switch_cpus3.commit.committedInstType_0::SimdSha1Hash            0      0.00%     80.61% # Class of committed instruction
system.switch_cpus3.commit.committedInstType_0::SimdSha1Hash2            0      0.00%     80.61% # Class of committed instruction
system.switch_cpus3.commit.committedInstType_0::SimdSha256Hash            0      0.00%     80.61% # Class of committed instruction
system.switch_cpus3.commit.committedInstType_0::SimdSha256Hash2            0      0.00%     80.61% # Class of committed instruction
system.switch_cpus3.commit.committedInstType_0::SimdShaSigma2            0      0.00%     80.61% # Class of committed instruction
system.switch_cpus3.commit.committedInstType_0::SimdShaSigma3            0      0.00%     80.61% # Class of committed instruction
system.switch_cpus3.commit.committedInstType_0::SimdPredAlu            0      0.00%     80.61% # Class of committed instruction
system.switch_cpus3.commit.committedInstType_0::MemRead     24049300      7.48%     88.09% # Class of committed instruction
system.switch_cpus3.commit.committedInstType_0::MemWrite     12183105      3.79%     91.88% # Class of committed instruction
system.switch_cpus3.commit.committedInstType_0::FloatMemRead     20075215      6.24%     98.12% # Class of committed instruction
system.switch_cpus3.commit.committedInstType_0::FloatMemWrite      6040763      1.88%    100.00% # Class of committed instruction
system.switch_cpus3.commit.committedInstType_0::IprAccess            0      0.00%    100.00% # Class of committed instruction
system.switch_cpus3.commit.committedInstType_0::InstPrefetch            0      0.00%    100.00% # Class of committed instruction
system.switch_cpus3.commit.committedInstType_0::total    321474508                       # Class of committed instruction
system.switch_cpus3.commit.commitEligibleSamples     28425361                       # number cycles where commit BW limit reached
system.switch_cpus3.decode.idleCycles         5027898                       # Number of cycles decode is idle
system.switch_cpus3.decode.blockedCycles     26377730                       # Number of cycles decode is blocked
system.switch_cpus3.decode.runCycles         50228535                       # Number of cycles decode is running
system.switch_cpus3.decode.unblockCycles      4839259                       # Number of cycles decode is unblocking
system.switch_cpus3.decode.squashCycles        500082                       # Number of cycles decode is squashing
system.switch_cpus3.decode.branchResolved     17928419                       # Number of times decode resolved a  branch
system.switch_cpus3.decode.branchMispred          289                       # Number of times decode detected a branch misprediction
system.switch_cpus3.decode.decodedInsts     353058556                       # Number of instructions handled by decode
system.switch_cpus3.decode.squashedInsts          439                       # Number of squashed instructions handled by decode
system.switch_cpus3.dtb.rdAccesses           45378638                       # TLB accesses on read requests
system.switch_cpus3.dtb.wrAccesses           18400430                       # TLB accesses on write requests
system.switch_cpus3.dtb.rdMisses                28489                       # TLB misses on read requests
system.switch_cpus3.dtb.wrMisses                  274                       # TLB misses on write requests
system.switch_cpus3.dtb.walker.power_state.pwrStateResidencyTicks::UNDEFINED 15680245109949                       # Cumulative time (in ticks) in various power states
system.switch_cpus3.fetch.icacheStallCycles       400903                       # Number of cycles fetch is stalled on an Icache miss
system.switch_cpus3.fetch.insts             198136547                       # Number of instructions fetch has processed
system.switch_cpus3.fetch.branches           35401708                       # Number of branches that fetch encountered
system.switch_cpus3.fetch.predictedBranches     22341297                       # Number of branches that fetch has predicted taken
system.switch_cpus3.fetch.cycles             86072234                       # Number of cycles fetch has run and was not squashing or blocked
system.switch_cpus3.fetch.squashCycles        1000738                       # Number of cycles fetch has spent squashing
system.switch_cpus3.fetch.cacheLines         29680957                       # Number of cache lines fetched
system.switch_cpus3.fetch.icacheSquashes          193                       # Number of outstanding Icache misses that were squashed
system.switch_cpus3.fetch.nisnDist::samples     86973506                       # Number of instructions fetched each cycle (Total)
system.switch_cpus3.fetch.nisnDist::mean     4.114291                       # Number of instructions fetched each cycle (Total)
system.switch_cpus3.fetch.nisnDist::stdev     3.388744                       # Number of instructions fetched each cycle (Total)
system.switch_cpus3.fetch.nisnDist::underflows            0      0.00%      0.00% # Number of instructions fetched each cycle (Total)
system.switch_cpus3.fetch.nisnDist::0        25415005     29.22%     29.22% # Number of instructions fetched each cycle (Total)
system.switch_cpus3.fetch.nisnDist::1         4172352      4.80%     34.02% # Number of instructions fetched each cycle (Total)
system.switch_cpus3.fetch.nisnDist::2         5045256      5.80%     39.82% # Number of instructions fetched each cycle (Total)
system.switch_cpus3.fetch.nisnDist::3         5923404      6.81%     46.63% # Number of instructions fetched each cycle (Total)
system.switch_cpus3.fetch.nisnDist::4         6486145      7.46%     54.09% # Number of instructions fetched each cycle (Total)
system.switch_cpus3.fetch.nisnDist::5         3690081      4.24%     58.33% # Number of instructions fetched each cycle (Total)
system.switch_cpus3.fetch.nisnDist::6         2862437      3.29%     61.62% # Number of instructions fetched each cycle (Total)
system.switch_cpus3.fetch.nisnDist::7         2799007      3.22%     64.84% # Number of instructions fetched each cycle (Total)
system.switch_cpus3.fetch.nisnDist::8        30579819     35.16%    100.00% # Number of instructions fetched each cycle (Total)
system.switch_cpus3.fetch.nisnDist::overflows            0      0.00%    100.00% # Number of instructions fetched each cycle (Total)
system.switch_cpus3.fetch.nisnDist::min_value            0                       # Number of instructions fetched each cycle (Total)
system.switch_cpus3.fetch.nisnDist::max_value            8                       # Number of instructions fetched each cycle (Total)
system.switch_cpus3.fetch.nisnDist::total     86973506                       # Number of instructions fetched each cycle (Total)
system.switch_cpus3.fetch.branchRate         0.406678                       # Number of branch fetches per cycle
system.switch_cpus3.fetch.rate               2.276097                       # Number of inst fetches per cycle
system.switch_cpus3.itb.rdAccesses                  0                       # TLB accesses on read requests
system.switch_cpus3.itb.wrAccesses           29680957                       # TLB accesses on write requests
system.switch_cpus3.itb.rdMisses                    0                       # TLB misses on read requests
system.switch_cpus3.itb.wrMisses                   26                       # TLB misses on write requests
system.switch_cpus3.itb.walker.power_state.pwrStateResidencyTicks::UNDEFINED 15680245109949                       # Cumulative time (in ticks) in various power states
system.switch_cpus3.lsq0.forwLoads            9802330                       # Number of loads that had data forwarded from stores
system.switch_cpus3.lsq0.squashedLoads        2304392                       # Number of loads squashed
system.switch_cpus3.lsq0.ignoredResponses           15                       # Number of memory responses ignored because the instruction is squashed
system.switch_cpus3.lsq0.memOrderViolation         5482                       # Number of memory ordering violations
system.switch_cpus3.lsq0.squashedStores        988698                       # Number of stores squashed
system.switch_cpus3.lsq0.rescheduledLoads          995                       # Number of loads that were rescheduled
system.switch_cpus3.lsq0.blockedByCache             1                       # Number of times an access to memory failed due to the cache being blocked
system.switch_cpus3.power_state.pwrStateResidencyTicks::OFF  28987991325                       # Cumulative time (in ticks) in various power states
system.switch_cpus3.rename.squashCycles        500082                       # Number of cycles rename is squashing
system.switch_cpus3.rename.idleCycles         7048471                       # Number of cycles rename is idle
system.switch_cpus3.rename.blockCycles       11655459                       # Number of cycles rename is blocking
system.switch_cpus3.rename.serializeStallCycles          154                       # count of cycles rename stalledfor serializing inst
system.switch_cpus3.rename.runCycles         52903491                       # Number of cycles rename is running
system.switch_cpus3.rename.unblockCycles     14865847                       # Number of cycles rename is unblocking
system.switch_cpus3.rename.renamedInsts     350254340                       # Number of instructions processed by rename
system.switch_cpus3.rename.ROBFullEvents        65744                       # Number of times rename has blocked due to ROB full
system.switch_cpus3.rename.IQFullEvents       4621901                       # Number of times rename has blocked due to IQ full
system.switch_cpus3.rename.LQFullEvents       8995646                       # Number of times rename has blocked due to LQ full
system.switch_cpus3.rename.SQFullEvents         84556                       # Number of times rename has blocked due to SQ full
system.switch_cpus3.rename.renamedOperands    384663960                       # Number of destination operands rename has renamed
system.switch_cpus3.rename.lookups          872163907                       # Number of register rename lookups that rename has made
system.switch_cpus3.rename.intLookups       388045416                       # Number of integer rename lookups
system.switch_cpus3.rename.fpLookups        131733459                       # Number of floating rename lookups
system.switch_cpus3.rename.committedMaps    349290765                       # Number of HB maps that are committed
system.switch_cpus3.rename.undoneMaps        35373067                       # Number of HB maps that are undone due to squashing
system.switch_cpus3.rename.serializing             16                       # count of serializing insts renamed
system.switch_cpus3.rename.tempSerializing           16                       # count of temporary serializing insts renamed
system.switch_cpus3.rename.skidInsts         18692844                       # count of insts added to the skid buffer
system.switch_cpus3.rob.reads               399922825                       # The number of ROB reads
system.switch_cpus3.rob.writes              692084712                       # The number of ROB writes
system.switch_cpus3.thread0.numInsts        177174077                       # Number of Instructions committed
system.switch_cpus3.thread0.numOps          321474508                       # Number of Ops committed
system.switch_cpus3.thread0.numMemRefs              0                       # Number of Memory References
system.voltage_domain.voltage                       1                       # Voltage in Volts

---------- End Simulation Statistics   ----------
