Command line:
./runscript_pride.sh mix22 RFM1.BR1.4C 4 2017 --rh_defense --rh_mitigation=RFM --rh_rfm_per_trefi=1 --rh_rfm_blast_radius=1 --rh_rfm_maxacts_per_trefi=79
Global frequency set at 1000000000000 ticks per second
RFM details - rfm_act_threshold: 79, blast_radius: 1, delay_per_rfm: 175000 ps. sample_rate: 0.012500
RH Defense config: RFM, Bus Delay: 0, rfms_per_trefi: 1, rfm_act_threshold: 79, blast_radius: 1,rfm_delay_per_act: 45000 ps.
DRAM config: RowsPerBank: 65536, BanksPerRank: 32, RanksPerChannel: 1
warn: Sockets disabled, not accepting gdb connections
warn: CoherentXBar system.cpu0.mmucache.mmubus has no snooping ports attached!
warn: CoherentXBar system.cpu1.mmucache.mmubus has no snooping ports attached!
warn: CoherentXBar system.cpu2.mmucache.mmubus has no snooping ports attached!
warn: CoherentXBar system.cpu3.mmucache.mmubus has no snooping ports attached!
warn: Checkpoints for file descriptors currently do not work.
warn: Checkpoints for file descriptors currently do not work.
warn: Checkpoints for file descriptors currently do not work.
warn: Checkpoints for file descriptors currently do not work.
gem5 Simulator System.  http://gem5.org
gem5 is copyrighted software; use the --copyright option for details.

gem5 version 20.1.0.5
gem5 compiled Jul 12 2024 12:42:38
gem5 started Jul 17 2024 14:32:01
gem5 executing on a07dda8b130c, pid 90395
command line: /home/user/PrIDE/performance/gem5/build/X86/gem5.opt --outdir=/home/user/PrIDE/performance/gem5/stats/pride_multiprogram_16GBmem_250Mn.SPEC2017.C4/RFM1.BR1.4C/mix22 /home/user/PrIDE/performance/gem5/configs/example/se_rq_spec_config_multicore.py --redirects /lib64=/home/utils/gcc-6.2.0/lib64 --benchmark=mix22 --benchmark_stdout=/home/user/PrIDE/performance/gem5/stats/pride_multiprogram_16GBmem_250Mn.SPEC2017.C4/RFM1.BR1.4C/mix22/mix22.out --benchmark_stderr=/home/user/PrIDE/performance/gem5/stats/pride_multiprogram_16GBmem_250Mn.SPEC2017.C4/RFM1.BR1.4C/mix22/mix22.err --spec-version=2017 --rh_defense --rh_mitigation=RFM --rh_rfm_per_trefi=1 --rh_rfm_blast_radius=1 --rh_rfm_maxacts_per_trefi=79 --num-cpus=4 --mem-size=16GB --mem-type=DDR5_2400_32x4 --mem-ranks=1 --checkpoint-dir=/home/user/PrIDE/performance/gem5/cpts/multiprogram_16GBmem_25Bn.SPEC2017.C4/mix22-1-ref-x86 --checkpoint-restore=25000000000 --at-instruction --cpu-type DerivO3CPU --caches --l2cache --l1d_size=32kB --l1i_size=32kB --l2_size=256kB --l1d_assoc=8 --l1i_assoc=8 --l2_assoc=16 --maxinsts=250000000 --prog-interval=300Hz

info: Standard input is not a terminal, disabling listeners.
Benchmark- 0   x264
Selected benchmark
--> x264
CMD: ['/opt/spec2017/benchspec/CPU/525.x264_r/run/run_base_refrate_gem5_se-m64.0000/x264_r_base.gem5_se-m64', '--pass', '1', '--stats', '/opt/spec2017/benchspec/CPU/525.x264_r/run/run_base_refrate_gem5_se-m64.0000/x264_stats.log', '--bitrate', '1000', '--frames', '1000', '-o', '/opt/spec2017/benchspec/CPU/525.x264_r/run/run_base_refrate_gem5_se-m64.0000/BuckBunny_New.264', '/opt/spec2017/benchspec/CPU/525.x264_r/run/run_base_refrate_gem5_se-m64.0000/BuckBunny.yuv', '1280x720']
CWD: /opt/spec2017/benchspec/CPU/525.x264_r/run/run_base_refrate_gem5_se-m64.0000/
Process stdout file: /home/user/PrIDE/performance/gem5/stats/pride_multiprogram_16GBmem_250Mn.SPEC2017.C4/RFM1.BR1.4C/mix22/mix22.out_0
Process stderr file: /home/user/PrIDE/performance/gem5/stats/pride_multiprogram_16GBmem_250Mn.SPEC2017.C4/RFM1.BR1.4C/mix22/mix22.err_0
Benchmark- 1   deepsjeng
Selected benchmark
--> deepsjeng
CMD: ['/opt/spec2017/benchspec/CPU/531.deepsjeng_r/run/run_base_refrate_gem5_se-m64.0000/deepsjeng_r_base.gem5_se-m64', '/opt/spec2017/benchspec/CPU/531.deepsjeng_r/run/run_base_refrate_gem5_se-m64.0000/ref.txt']
CWD: /opt/spec2017/benchspec/CPU/531.deepsjeng_r/run/run_base_refrate_gem5_se-m64.0000/
Process stdout file: /home/user/PrIDE/performance/gem5/stats/pride_multiprogram_16GBmem_250Mn.SPEC2017.C4/RFM1.BR1.4C/mix22/mix22.out_1
Process stderr file: /home/user/PrIDE/performance/gem5/stats/pride_multiprogram_16GBmem_250Mn.SPEC2017.C4/RFM1.BR1.4C/mix22/mix22.err_1
Benchmark- 2   blender
Selected benchmark
--> blender
CMD: ['/opt/spec2017/benchspec/CPU/526.blender_r/run/run_base_refrate_gem5_se-m64.0000/blender_r_base.gem5_se-m64', '/opt/spec2017/benchspec/CPU/526.blender_r/run/run_base_refrate_gem5_se-m64.0000/sh3_no_char.blend', '--render-output', 'sh3_no_char_', '--threads', '1', '-b', '-F', 'RAWTGA', '-s', '849', '-e', '849', '-a']
CWD: /opt/spec2017/benchspec/CPU/526.blender_r/run/run_base_refrate_gem5_se-m64.0000/
Process stdout file: /home/user/PrIDE/performance/gem5/stats/pride_multiprogram_16GBmem_250Mn.SPEC2017.C4/RFM1.BR1.4C/mix22/mix22.out_2
Process stderr file: /home/user/PrIDE/performance/gem5/stats/pride_multiprogram_16GBmem_250Mn.SPEC2017.C4/RFM1.BR1.4C/mix22/mix22.err_2
Benchmark- 3   namd
Selected benchmark
--> namd
CMD: ['/opt/spec2017/benchspec/CPU/508.namd_r/run/run_base_refrate_gem5_se-m64.0000/namd_r_base.gem5_se-m64', '--input', '/opt/spec2017/benchspec/CPU/508.namd_r/run/run_base_refrate_gem5_se-m64.0000/apoa1.input', '--output', '/opt/spec2017/benchspec/CPU/508.namd_r/run/run_base_refrate_gem5_se-m64.0000/apoa1.ref.output', '--iterations', '65']
CWD: /opt/spec2017/benchspec/CPU/508.namd_r/run/run_base_refrate_gem5_se-m64.0000/
Process stdout file: /home/user/PrIDE/performance/gem5/stats/pride_multiprogram_16GBmem_250Mn.SPEC2017.C4/RFM1.BR1.4C/mix22/mix22.out_3
Process stderr file: /home/user/PrIDE/performance/gem5/stats/pride_multiprogram_16GBmem_250Mn.SPEC2017.C4/RFM1.BR1.4C/mix22/mix22.err_3
Workload-0: 
['/opt/spec2017/benchspec/CPU/525.x264_r/run/run_base_refrate_gem5_se-m64.0000/x264_r_base.gem5_se-m64', '--pass', '1', '--stats', '/opt/spec2017/benchspec/CPU/525.x264_r/run/run_base_refrate_gem5_se-m64.0000/x264_stats.log', '--bitrate', '1000', '--frames', '1000', '-o', '/opt/spec2017/benchspec/CPU/525.x264_r/run/run_base_refrate_gem5_se-m64.0000/BuckBunny_New.264', '/opt/spec2017/benchspec/CPU/525.x264_r/run/run_base_refrate_gem5_se-m64.0000/BuckBunny.yuv', '1280x720']
Workload-1: 
['/opt/spec2017/benchspec/CPU/531.deepsjeng_r/run/run_base_refrate_gem5_se-m64.0000/deepsjeng_r_base.gem5_se-m64', '/opt/spec2017/benchspec/CPU/531.deepsjeng_r/run/run_base_refrate_gem5_se-m64.0000/ref.txt']
Workload-2: 
['/opt/spec2017/benchspec/CPU/526.blender_r/run/run_base_refrate_gem5_se-m64.0000/blender_r_base.gem5_se-m64', '/opt/spec2017/benchspec/CPU/526.blender_r/run/run_base_refrate_gem5_se-m64.0000/sh3_no_char.blend', '--render-output', 'sh3_no_char_', '--threads', '1', '-b', '-F', 'RAWTGA', '-s', '849', '-e', '849', '-a']
Workload-3: 
['/opt/spec2017/benchspec/CPU/508.namd_r/run/run_base_refrate_gem5_se-m64.0000/namd_r_base.gem5_se-m64', '--input', '/opt/spec2017/benchspec/CPU/508.namd_r/run/run_base_refrate_gem5_se-m64.0000/apoa1.input', '--output', '/opt/spec2017/benchspec/CPU/508.namd_r/run/run_base_refrate_gem5_se-m64.0000/apoa1.ref.output', '--iterations', '65']
defense_enable:  True  detector:  MG  mitigation:  RFM  threshold:  800
mg_entries:  1700
rfm_maxacts_per_trefi:  79 rfm_per_trefi:  1 rfm_blast_radius:  1
Switch at curTick count:10000
warn: membus.master is deprecated. `master` is now called `mem_side_ports`
warn: No dot file generated. Please install pydot to generate the dot file and pdf.
info: Entering event queue @ 13945158484398.  Starting simulation...
info: Entering event queue @ 13945158494398.  Starting simulation...
warn: PowerState: Already in the requested power state, request ignored
Switched CPUS @ tick 13945158494398
switching cpus
**** REAL SIMULATION ****
info: Entering event queue @ 13945158495054.  Starting simulation...
warn: MOVNTDQ: Ignoring non-temporal hint, modeling as cacheable!
13948491817731: Event_285: system.switch_cpus3 progress event, total committed:33477540, progress insts committed: 33477540, IPC: 03.34441
13948491817731: Event_284: system.switch_cpus2 progress event, total committed:24961355, progress insts committed: 24961355, IPC: 02.49364
13948491817731: Event_283: system.switch_cpus1 progress event, total committed:21614031, progress insts committed: 21614031, IPC: 02.15924
13948491817731: Event_282: system.switch_cpus0 progress event, total committed:16709196, progress insts committed: 16709196, IPC: 01.66925
13951825151064: Event_282: system.switch_cpus0 progress event, total committed:33194648, progress insts committed: 16485452, IPC: 001.6469
13951825151064: Event_283: system.switch_cpus1 progress event, total committed:44340701, progress insts committed: 22726670, IPC: 02.27039
13951825151064: Event_284: system.switch_cpus2 progress event, total committed:50520590, progress insts committed: 25559235, IPC: 02.55337
13951825151064: Event_285: system.switch_cpus3 progress event, total committed:66751428, progress insts committed: 33273888, IPC: 03.32406
13955158484397: Event_285: system.switch_cpus3 progress event, total committed:99703002, progress insts committed: 32951574, IPC: 03.29186
13955158484397: Event_284: system.switch_cpus2 progress event, total committed:75787777, progress insts committed: 25267187, IPC: 02.52419
13955158484397: Event_283: system.switch_cpus1 progress event, total committed:66403457, progress insts committed: 22062756, IPC: 02.20407
13955158484397: Event_282: system.switch_cpus0 progress event, total committed:49646560, progress insts committed: 16451912, IPC: 01.64355
13958491817730: Event_282: system.switch_cpus0 progress event, total committed:66204670, progress insts committed: 16558110, IPC: 01.65416
13958491817730: Event_283: system.switch_cpus1 progress event, total committed:88887391, progress insts committed: 22483934, IPC: 02.24615
13958491817730: Event_284: system.switch_cpus2 progress event, total committed:102522455, progress insts committed: 26734678, IPC: 02.67079
13958491817730: Event_285: system.switch_cpus3 progress event, total committed:133466830, progress insts committed: 33763828, IPC: 03.37301
13961825151063: Event_285: system.switch_cpus3 progress event, total committed:167131049, progress insts committed: 33664219, IPC: 03.36306
13961825151063: Event_284: system.switch_cpus2 progress event, total committed:128818505, progress insts committed: 26296050, IPC: 02.62698
13961825151063: Event_283: system.switch_cpus1 progress event, total committed:111312587, progress insts committed: 22425196, IPC: 02.24028
13961825151063: Event_282: system.switch_cpus0 progress event, total committed:81896177, progress insts committed: 15691507, IPC: 01.56758
panic: Tried to read unmapped address 0xef892350.
PC: 0x15, Instr:   ADD_M_R : ldst   t1b, DS:[rax]
Memory Usage: 17416088 KBytes
Program aborted at tick 13962875357124
--- BEGIN LIBC BACKTRACE ---
/home/user/PrIDE/performance/gem5/build/X86/gem5.opt(_Z15print_backtracev+0x2c)[0x639ba65195ac]
/home/user/PrIDE/performance/gem5/build/X86/gem5.opt(_Z12abortHandleri+0x4a)[0x639ba652c0ca]
/lib/x86_64-linux-gnu/libpthread.so.0(+0x12980)[0x7389fe64a980]
/lib/x86_64-linux-gnu/libc.so.6(gsignal+0xc7)[0x7389fcb42e87]
/lib/x86_64-linux-gnu/libc.so.6(abort+0x141)[0x7389fcb447f1]
/home/user/PrIDE/performance/gem5/build/X86/gem5.opt(+0x63a78f)[0x639ba603a78f]
/home/user/PrIDE/performance/gem5/build/X86/gem5.opt(_ZN6X86ISA9PageFault6invokeEP13ThreadContextRK14RefCountingPtrI10StaticInstE+0x4d4)[0x639ba6925a84]
/home/user/PrIDE/performance/gem5/build/X86/gem5.opt(_ZN13DefaultCommitI9O3CPUImplE10commitHeadERK14RefCountingPtrI13BaseO3DynInstIS0_EEj+0x71b)[0x639ba6f8260b]
/home/user/PrIDE/performance/gem5/build/X86/gem5.opt(_ZN13DefaultCommitI9O3CPUImplE11commitInstsEv+0x6b0)[0x639ba6f83ab0]
/home/user/PrIDE/performance/gem5/build/X86/gem5.opt(_ZN13DefaultCommitI9O3CPUImplE6commitEv+0xc40)[0x639ba6f85600]
/home/user/PrIDE/performance/gem5/build/X86/gem5.opt(_ZN13DefaultCommitI9O3CPUImplE4tickEv+0xe8)[0x639ba6f858d8]
/home/user/PrIDE/performance/gem5/build/X86/gem5.opt(_ZN9FullO3CPUI9O3CPUImplE4tickEv+0x15b)[0x639ba6f9519b]
/home/user/PrIDE/performance/gem5/build/X86/gem5.opt(_ZN10EventQueue10serviceOneEv+0xa5)[0x639ba6521a85]
/home/user/PrIDE/performance/gem5/build/X86/gem5.opt(_Z9doSimLoopP10EventQueue+0x87)[0x639ba6546b47]
/home/user/PrIDE/performance/gem5/build/X86/gem5.opt(_Z8simulatem+0xcba)[0x639ba6547b9a]
/home/user/PrIDE/performance/gem5/build/X86/gem5.opt(+0x14aa4e1)[0x639ba6eaa4e1]
/home/user/PrIDE/performance/gem5/build/X86/gem5.opt(+0x888be9)[0x639ba6288be9]
/usr/lib/x86_64-linux-gnu/libpython3.6m.so.1.0(PyCFunction_Call+0x96)[0x7389fea6a736]
/usr/lib/x86_64-linux-gnu/libpython3.6m.so.1.0(_PyEval_EvalFrameDefault+0x76e0)[0x7389fe9dbb20]
/usr/lib/x86_64-linux-gnu/libpython3.6m.so.1.0(+0x17ba0f)[0x7389fe9d2a0f]
/usr/lib/x86_64-linux-gnu/libpython3.6m.so.1.0(+0x17c0fc)[0x7389fe9d30fc]
/usr/lib/x86_64-linux-gnu/libpython3.6m.so.1.0(_PyEval_EvalFrameDefault+0x4ec3)[0x7389fe9d9303]
/usr/lib/x86_64-linux-gnu/libpython3.6m.so.1.0(+0x17a803)[0x7389fe9d1803]
/usr/lib/x86_64-linux-gnu/libpython3.6m.so.1.0(+0x17c2be)[0x7389fe9d32be]
/usr/lib/x86_64-linux-gnu/libpython3.6m.so.1.0(_PyEval_EvalFrameDefault+0x4ec3)[0x7389fe9d9303]
/usr/lib/x86_64-linux-gnu/libpython3.6m.so.1.0(+0x17ba0f)[0x7389fe9d2a0f]
/usr/lib/x86_64-linux-gnu/libpython3.6m.so.1.0(+0x17c0fc)[0x7389fe9d30fc]
/usr/lib/x86_64-linux-gnu/libpython3.6m.so.1.0(_PyEval_EvalFrameDefault+0x4ec3)[0x7389fe9d9303]
/usr/lib/x86_64-linux-gnu/libpython3.6m.so.1.0(+0x17ba0f)[0x7389fe9d2a0f]
/usr/lib/x86_64-linux-gnu/libpython3.6m.so.1.0(PyEval_EvalCodeEx+0x3e)[0x7389fe9d34ce]
/usr/lib/x86_64-linux-gnu/libpython3.6m.so.1.0(PyEval_EvalCode+0x1b)[0x7389fe9d424b]
/usr/lib/x86_64-linux-gnu/libpython3.6m.so.1.0(+0x18855d)[0x7389fe9df55d]
--- END LIBC BACKTRACE ---
