Command line:
./runscript_pride.sh povray RFM10.BR2.4C 4 2017 --rh_defense --rh_mitigation=RFM --rh_rfm_per_trefi=10 --rh_rfm_blast_radius=2 --rh_rfm_maxacts_per_trefi=79
Global frequency set at 1000000000000 ticks per second
RFM details - rfm_act_threshold: 7, blast_radius: 2, delay_per_rfm: 175000 ps. sample_rate: 0.125000
RH Defense config: RFM, Bus Delay: 0, rfms_per_trefi: 10, rfm_act_threshold: 7, blast_radius: 2,rfm_delay_per_act: 45000 ps.
DRAM config: RowsPerBank: 65536, BanksPerRank: 32, RanksPerChannel: 1
warn: Sockets disabled, not accepting gdb connections
warn: CoherentXBar system.cpu0.mmucache.mmubus has no snooping ports attached!
warn: CoherentXBar system.cpu1.mmucache.mmubus has no snooping ports attached!
warn: CoherentXBar system.cpu2.mmucache.mmubus has no snooping ports attached!
warn: CoherentXBar system.cpu3.mmucache.mmubus has no snooping ports attached!
warn: Checkpoints for file descriptors currently do not work.
warn: Checkpoints for file descriptors currently do not work.
warn: Checkpoints for file descriptors currently do not work.
warn: Checkpoints for file descriptors currently do not work.
gem5 Simulator System.  http://gem5.org
gem5 is copyrighted software; use the --copyright option for details.

gem5 version 20.1.0.5
gem5 compiled Jul 12 2024 12:42:38
gem5 started Jul 22 2024 18:19:37
gem5 executing on a07dda8b130c, pid 89732
command line: /home/user/PrIDE/performance/gem5/build/X86/gem5.opt --outdir=/home/user/PrIDE/performance/gem5/stats/pride_multiprogram_16GBmem_250Mn.SPEC2017.C4/RFM10.BR2.4C/povray /home/user/PrIDE/performance/gem5/configs/example/se_rq_spec_config_multicore.py --redirects /lib64=/home/utils/gcc-6.2.0/lib64 --benchmark=povray --benchmark_stdout=/home/user/PrIDE/performance/gem5/stats/pride_multiprogram_16GBmem_250Mn.SPEC2017.C4/RFM10.BR2.4C/povray/povray.out --benchmark_stderr=/home/user/PrIDE/performance/gem5/stats/pride_multiprogram_16GBmem_250Mn.SPEC2017.C4/RFM10.BR2.4C/povray/povray.err --spec-version=2017 --rh_defense --rh_mitigation=RFM --rh_rfm_per_trefi=10 --rh_rfm_blast_radius=2 --rh_rfm_maxacts_per_trefi=79 --num-cpus=4 --mem-size=16GB --mem-type=DDR5_2400_32x4 --mem-ranks=1 --checkpoint-dir=/home/user/PrIDE/performance/gem5/cpts/multiprogram_16GBmem_25Bn.SPEC2017.C4/povray-1-ref-x86 --checkpoint-restore=25000000000 --at-instruction --cpu-type DerivO3CPU --caches --l2cache --l1d_size=32kB --l1i_size=32kB --l2_size=256kB --l1d_assoc=8 --l1i_assoc=8 --l2_assoc=16 --maxinsts=250000000 --prog-interval=300Hz

info: Standard input is not a terminal, disabling listeners.
Benchmark- 0   povray
Selected benchmark
--> povray
CMD: ['/opt/spec2017/benchspec/CPU/511.povray_r/run/run_base_refrate_gem5_se-m64.0000/povray_r_base.gem5_se-m64', '/opt/spec2017/benchspec/CPU/511.povray_r/run/run_base_refrate_gem5_se-m64.0000/SPEC-benchmark-ref.ini']
CWD: /opt/spec2017/benchspec/CPU/511.povray_r/run/run_base_refrate_gem5_se-m64.0000/
Process stdout file: /home/user/PrIDE/performance/gem5/stats/pride_multiprogram_16GBmem_250Mn.SPEC2017.C4/RFM10.BR2.4C/povray/povray.out_0
Process stderr file: /home/user/PrIDE/performance/gem5/stats/pride_multiprogram_16GBmem_250Mn.SPEC2017.C4/RFM10.BR2.4C/povray/povray.err_0
Benchmark- 1   povray
Selected benchmark
--> povray
CMD: ['/opt/spec2017/benchspec/CPU/511.povray_r/run/run_base_refrate_gem5_se-m64.0000/povray_r_base.gem5_se-m64', '/opt/spec2017/benchspec/CPU/511.povray_r/run/run_base_refrate_gem5_se-m64.0000/SPEC-benchmark-ref.ini']
CWD: /opt/spec2017/benchspec/CPU/511.povray_r/run/run_base_refrate_gem5_se-m64.0000/
Process stdout file: /home/user/PrIDE/performance/gem5/stats/pride_multiprogram_16GBmem_250Mn.SPEC2017.C4/RFM10.BR2.4C/povray/povray.out_1
Process stderr file: /home/user/PrIDE/performance/gem5/stats/pride_multiprogram_16GBmem_250Mn.SPEC2017.C4/RFM10.BR2.4C/povray/povray.err_1
Benchmark- 2   povray
Selected benchmark
--> povray
CMD: ['/opt/spec2017/benchspec/CPU/511.povray_r/run/run_base_refrate_gem5_se-m64.0000/povray_r_base.gem5_se-m64', '/opt/spec2017/benchspec/CPU/511.povray_r/run/run_base_refrate_gem5_se-m64.0000/SPEC-benchmark-ref.ini']
CWD: /opt/spec2017/benchspec/CPU/511.povray_r/run/run_base_refrate_gem5_se-m64.0000/
Process stdout file: /home/user/PrIDE/performance/gem5/stats/pride_multiprogram_16GBmem_250Mn.SPEC2017.C4/RFM10.BR2.4C/povray/povray.out_2
Process stderr file: /home/user/PrIDE/performance/gem5/stats/pride_multiprogram_16GBmem_250Mn.SPEC2017.C4/RFM10.BR2.4C/povray/povray.err_2
Benchmark- 3   povray
Selected benchmark
--> povray
CMD: ['/opt/spec2017/benchspec/CPU/511.povray_r/run/run_base_refrate_gem5_se-m64.0000/povray_r_base.gem5_se-m64', '/opt/spec2017/benchspec/CPU/511.povray_r/run/run_base_refrate_gem5_se-m64.0000/SPEC-benchmark-ref.ini']
CWD: /opt/spec2017/benchspec/CPU/511.povray_r/run/run_base_refrate_gem5_se-m64.0000/
Process stdout file: /home/user/PrIDE/performance/gem5/stats/pride_multiprogram_16GBmem_250Mn.SPEC2017.C4/RFM10.BR2.4C/povray/povray.out_3
Process stderr file: /home/user/PrIDE/performance/gem5/stats/pride_multiprogram_16GBmem_250Mn.SPEC2017.C4/RFM10.BR2.4C/povray/povray.err_3
Workload-0: 
['/opt/spec2017/benchspec/CPU/511.povray_r/run/run_base_refrate_gem5_se-m64.0000/povray_r_base.gem5_se-m64', '/opt/spec2017/benchspec/CPU/511.povray_r/run/run_base_refrate_gem5_se-m64.0000/SPEC-benchmark-ref.ini']
Workload-1: 
['/opt/spec2017/benchspec/CPU/511.povray_r/run/run_base_refrate_gem5_se-m64.0000/povray_r_base.gem5_se-m64', '/opt/spec2017/benchspec/CPU/511.povray_r/run/run_base_refrate_gem5_se-m64.0000/SPEC-benchmark-ref.ini']
Workload-2: 
['/opt/spec2017/benchspec/CPU/511.povray_r/run/run_base_refrate_gem5_se-m64.0000/povray_r_base.gem5_se-m64', '/opt/spec2017/benchspec/CPU/511.povray_r/run/run_base_refrate_gem5_se-m64.0000/SPEC-benchmark-ref.ini']
Workload-3: 
['/opt/spec2017/benchspec/CPU/511.povray_r/run/run_base_refrate_gem5_se-m64.0000/povray_r_base.gem5_se-m64', '/opt/spec2017/benchspec/CPU/511.povray_r/run/run_base_refrate_gem5_se-m64.0000/SPEC-benchmark-ref.ini']
defense_enable:  True  detector:  MG  mitigation:  RFM  threshold:  800
mg_entries:  1700
rfm_maxacts_per_trefi:  79 rfm_per_trefi:  10 rfm_blast_radius:  2
Switch at curTick count:10000
warn: membus.master is deprecated. `master` is now called `mem_side_ports`
warn: No dot file generated. Please install pydot to generate the dot file and pdf.
info: Entering event queue @ 17895005562186.  Starting simulation...
info: Entering event queue @ 17895005572186.  Starting simulation...
warn: PowerState: Already in the requested power state, request ignored
Switched CPUS @ tick 17895005572186
switching cpus
**** REAL SIMULATION ****
info: Entering event queue @ 17895005572509.  Starting simulation...
17898338895519: Event_285: system.switch_cpus3 progress event, total committed:44410744, progress insts committed: 44410744, IPC: 04.43663
17898338895519: Event_284: system.switch_cpus2 progress event, total committed:44411062, progress insts committed: 44411062, IPC: 04.43667
17898338895519: Event_283: system.switch_cpus1 progress event, total committed:44411577, progress insts committed: 44411577, IPC: 04.43672
17898338895519: Event_282: system.switch_cpus0 progress event, total committed:44411729, progress insts committed: 44411729, IPC: 04.43673
17901672228852: Event_282: system.switch_cpus0 progress event, total committed:89766344, progress insts committed: 45354615, IPC: 04.53093
17901672228852: Event_283: system.switch_cpus1 progress event, total committed:89771320, progress insts committed: 45359743, IPC: 04.53144
17901672228852: Event_284: system.switch_cpus2 progress event, total committed:89778048, progress insts committed: 45366986, IPC: 04.53216
17901672228852: Event_285: system.switch_cpus3 progress event, total committed:89778669, progress insts committed: 45367925, IPC: 04.53226
17905005562185: Event_285: system.switch_cpus3 progress event, total committed:135289515, progress insts committed: 45510846, IPC: 04.54653
17905005562185: Event_284: system.switch_cpus2 progress event, total committed:135283278, progress insts committed: 45505230, IPC: 04.54597
17905005562185: Event_283: system.switch_cpus1 progress event, total committed:135272467, progress insts committed: 45501147, IPC: 04.54556
17905005562185: Event_282: system.switch_cpus0 progress event, total committed:135272514, progress insts committed: 45506170, IPC: 04.54607
17908338895518: Event_282: system.switch_cpus0 progress event, total committed:180744512, progress insts committed: 45471998, IPC: 04.54265
17908338895518: Event_283: system.switch_cpus1 progress event, total committed:180746223, progress insts committed: 45473756, IPC: 04.54283
17908338895518: Event_284: system.switch_cpus2 progress event, total committed:180751868, progress insts committed: 45468590, IPC: 04.54231
17908338895518: Event_285: system.switch_cpus3 progress event, total committed:180760169, progress insts committed: 45470654, IPC: 04.54252
17911672228851: Event_285: system.switch_cpus3 progress event, total committed:226424846, progress insts committed: 45664677, IPC: 004.5619
17911672228851: Event_284: system.switch_cpus2 progress event, total committed:226417213, progress insts committed: 45665345, IPC: 04.56197
17911672228851: Event_283: system.switch_cpus1 progress event, total committed:226409245, progress insts committed: 45663022, IPC: 04.56174
17911672228851: Event_282: system.switch_cpus0 progress event, total committed:226408889, progress insts committed: 45664377, IPC: 04.56187
17915005562184: Event_282: system.switch_cpus0 progress event, total committed:272105458, progress insts committed: 45696569, IPC: 04.56509
17915005562184: Event_283: system.switch_cpus1 progress event, total committed:272105727, progress insts committed: 45696482, IPC: 04.56508
17915005562184: Event_284: system.switch_cpus2 progress event, total committed:272109888, progress insts committed: 45692675, IPC: 004.5647
17915005562184: Event_285: system.switch_cpus3 progress event, total committed:272116335, progress insts committed: 45691489, IPC: 04.56458
17918338895517: Event_285: system.switch_cpus3 progress event, total committed:317884859, progress insts committed: 45768524, IPC: 04.57228
17918338895517: Event_284: system.switch_cpus2 progress event, total committed:317881744, progress insts committed: 45771856, IPC: 04.57261
17918338895517: Event_283: system.switch_cpus1 progress event, total committed:317874662, progress insts committed: 45768935, IPC: 04.57232
17918338895517: Event_282: system.switch_cpus0 progress event, total committed:317876112, progress insts committed: 45770654, IPC: 04.57249
17921672228850: Event_282: system.switch_cpus0 progress event, total committed:362919735, progress insts committed: 45043623, IPC: 04.49986
17921672228850: Event_283: system.switch_cpus1 progress event, total committed:362919745, progress insts committed: 45045083, IPC: 000004.5
17921672228850: Event_284: system.switch_cpus2 progress event, total committed:362932314, progress insts committed: 45050570, IPC: 04.50055
17921672228850: Event_285: system.switch_cpus3 progress event, total committed:362932652, progress insts committed: 45047793, IPC: 04.50027
17925005562183: Event_285: system.switch_cpus3 progress event, total committed:408039583, progress insts committed: 45106931, IPC: 04.50618
17925005562183: Event_284: system.switch_cpus2 progress event, total committed:408039412, progress insts committed: 45107098, IPC: 004.5062
17925005562183: Event_283: system.switch_cpus1 progress event, total committed:408025793, progress insts committed: 45106048, IPC: 04.50609
17925005562183: Event_282: system.switch_cpus0 progress event, total committed:408025737, progress insts committed: 45106002, IPC: 04.50609
Exiting @ tick 17928138844071 because a thread reached the max instruction count
