
---------- Begin Simulation Statistics ----------
final_tick                               17928138844071                       # Number of ticks from beginning of simulation (restored from checkpoints and never reset)
host_inst_rate                                 164503                       # Simulator instruction rate (inst/s)
host_mem_usage                               17114620                       # Number of bytes of host memory used
host_op_rate                                   296434                       # Simulator op (including micro ops) rate (op/s)
host_seconds                                  6078.84                       # Real time elapsed on the host
host_tick_rate                                5450589                       # Simulator tick rate (ticks/s)
sim_freq                                 1000000000000                       # Frequency of simulated ticks
sim_insts                                   999988196                       # Number of instructions simulated
sim_ops                                    1801976842                       # Number of ops (including micro ops) simulated
sim_seconds                                  0.033133                       # Number of seconds simulated
sim_ticks                                 33133281885                       # Number of ticks simulated
system.cpu0.committedInsts                         17                       # Number of instructions committed
system.cpu0.committedOps                           24                       # Number of ops (including micro ops) committed
system.cpu0.idle_fraction                           0                       # Percentage of idle cycles
system.cpu0.l2bus.snoop_filter.hit_multi_requests        45588                       # Number of requests hitting in the snoop filter with multiple (>1) holders of the requested data.
system.cpu0.l2bus.snoop_filter.hit_multi_snoops            0                       # Number of snoops hitting in the snoop filter with multiple (>1) holders of the requested data.
system.cpu0.l2bus.snoop_filter.hit_single_requests      1721411                       # Number of requests hitting in the snoop filter with a single holder of the requested data.
system.cpu0.l2bus.snoop_filter.hit_single_snoops            1                       # Number of snoops hitting in the snoop filter with a single holder of the requested data.
system.cpu0.l2bus.snoop_filter.tot_requests      3443766                       # Total number of requests made to the snoop filter.
system.cpu0.l2bus.snoop_filter.tot_snoops            1                       # Total number of snoops made to the snoop filter.
system.cpu0.mmucache.mmubus.snoop_filter.hit_multi_requests            0                       # Number of requests hitting in the snoop filter with multiple (>1) holders of the requested data.
system.cpu0.mmucache.mmubus.snoop_filter.hit_multi_snoops            0                       # Number of snoops hitting in the snoop filter with multiple (>1) holders of the requested data.
system.cpu0.mmucache.mmubus.snoop_filter.hit_single_requests            0                       # Number of requests hitting in the snoop filter with a single holder of the requested data.
system.cpu0.mmucache.mmubus.snoop_filter.hit_single_snoops            0                       # Number of snoops hitting in the snoop filter with a single holder of the requested data.
system.cpu0.mmucache.mmubus.snoop_filter.tot_requests            0                       # Total number of requests made to the snoop filter.
system.cpu0.mmucache.mmubus.snoop_filter.tot_snoops            0                       # Total number of snoops made to the snoop filter.
system.cpu0.not_idle_fraction                       1                       # Percentage of non-idle cycles
system.cpu0.numCycles                              31                       # number of cpu cycles simulated
system.cpu0.numWorkItemsCompleted                   0                       # number of work items this cpu completed
system.cpu0.numWorkItemsStarted                     0                       # number of work items this cpu started
system.cpu0.num_busy_cycles                        31                       # Number of busy cycles
system.cpu0.num_cc_register_reads                   2                       # number of times the CC registers were read
system.cpu0.num_cc_register_writes                  4                       # number of times the CC registers were written
system.cpu0.num_conditional_control_insts            0                       # number of instructions that are conditional controls
system.cpu0.num_fp_alu_accesses                    17                       # Number of float alu accesses
system.cpu0.num_fp_insts                           17                       # number of float instructions
system.cpu0.num_fp_register_reads                  36                       # number of times the floating registers were read
system.cpu0.num_fp_register_writes                 17                       # number of times the floating registers were written
system.cpu0.num_func_calls                          0                       # number of times a function call or return occured
system.cpu0.num_idle_cycles                         0                       # Number of idle cycles
system.cpu0.num_int_alu_accesses                   11                       # Number of integer alu accesses
system.cpu0.num_int_insts                          11                       # number of integer instructions
system.cpu0.num_int_register_reads                 30                       # number of times the integer registers were read
system.cpu0.num_int_register_writes                 5                       # number of times the integer registers were written
system.cpu0.num_load_insts                          6                       # Number of load instructions
system.cpu0.num_mem_refs                            8                       # number of memory refs
system.cpu0.num_store_insts                         2                       # Number of store instructions
system.cpu0.num_vec_alu_accesses                    0                       # Number of vector alu accesses
system.cpu0.num_vec_insts                           0                       # number of vector instructions
system.cpu0.num_vec_register_reads                  0                       # number of times the vector registers were read
system.cpu0.num_vec_register_writes                 0                       # number of times the vector registers were written
system.cpu0.op_class::No_OpClass                    0      0.00%      0.00% # Class of executed instruction
system.cpu0.op_class::IntAlu                        6     25.00%     25.00% # Class of executed instruction
system.cpu0.op_class::IntMult                       0      0.00%     25.00% # Class of executed instruction
system.cpu0.op_class::IntDiv                        0      0.00%     25.00% # Class of executed instruction
system.cpu0.op_class::FloatAdd                      0      0.00%     25.00% # Class of executed instruction
system.cpu0.op_class::FloatCmp                      0      0.00%     25.00% # Class of executed instruction
system.cpu0.op_class::FloatCvt                      0      0.00%     25.00% # Class of executed instruction
system.cpu0.op_class::FloatMult                     0      0.00%     25.00% # Class of executed instruction
system.cpu0.op_class::FloatMultAcc                  0      0.00%     25.00% # Class of executed instruction
system.cpu0.op_class::FloatDiv                      0      0.00%     25.00% # Class of executed instruction
system.cpu0.op_class::FloatMisc                     0      0.00%     25.00% # Class of executed instruction
system.cpu0.op_class::FloatSqrt                     0      0.00%     25.00% # Class of executed instruction
system.cpu0.op_class::SimdAdd                       0      0.00%     25.00% # Class of executed instruction
system.cpu0.op_class::SimdAddAcc                    0      0.00%     25.00% # Class of executed instruction
system.cpu0.op_class::SimdAlu                       0      0.00%     25.00% # Class of executed instruction
system.cpu0.op_class::SimdCmp                       0      0.00%     25.00% # Class of executed instruction
system.cpu0.op_class::SimdCvt                       0      0.00%     25.00% # Class of executed instruction
system.cpu0.op_class::SimdMisc                      0      0.00%     25.00% # Class of executed instruction
system.cpu0.op_class::SimdMult                      0      0.00%     25.00% # Class of executed instruction
system.cpu0.op_class::SimdMultAcc                   0      0.00%     25.00% # Class of executed instruction
system.cpu0.op_class::SimdShift                     0      0.00%     25.00% # Class of executed instruction
system.cpu0.op_class::SimdShiftAcc                  0      0.00%     25.00% # Class of executed instruction
system.cpu0.op_class::SimdDiv                       0      0.00%     25.00% # Class of executed instruction
system.cpu0.op_class::SimdSqrt                      0      0.00%     25.00% # Class of executed instruction
system.cpu0.op_class::SimdFloatAdd                  3     12.50%     37.50% # Class of executed instruction
system.cpu0.op_class::SimdFloatAlu                  0      0.00%     37.50% # Class of executed instruction
system.cpu0.op_class::SimdFloatCmp                  0      0.00%     37.50% # Class of executed instruction
system.cpu0.op_class::SimdFloatCvt                  0      0.00%     37.50% # Class of executed instruction
system.cpu0.op_class::SimdFloatDiv                  0      0.00%     37.50% # Class of executed instruction
system.cpu0.op_class::SimdFloatMisc                 0      0.00%     37.50% # Class of executed instruction
system.cpu0.op_class::SimdFloatMult                 7     29.17%     66.67% # Class of executed instruction
system.cpu0.op_class::SimdFloatMultAcc              0      0.00%     66.67% # Class of executed instruction
system.cpu0.op_class::SimdFloatSqrt                 0      0.00%     66.67% # Class of executed instruction
system.cpu0.op_class::SimdReduceAdd                 0      0.00%     66.67% # Class of executed instruction
system.cpu0.op_class::SimdReduceAlu                 0      0.00%     66.67% # Class of executed instruction
system.cpu0.op_class::SimdReduceCmp                 0      0.00%     66.67% # Class of executed instruction
system.cpu0.op_class::SimdFloatReduceAdd            0      0.00%     66.67% # Class of executed instruction
system.cpu0.op_class::SimdFloatReduceCmp            0      0.00%     66.67% # Class of executed instruction
system.cpu0.op_class::SimdAes                       0      0.00%     66.67% # Class of executed instruction
system.cpu0.op_class::SimdAesMix                    0      0.00%     66.67% # Class of executed instruction
system.cpu0.op_class::SimdSha1Hash                  0      0.00%     66.67% # Class of executed instruction
system.cpu0.op_class::SimdSha1Hash2                 0      0.00%     66.67% # Class of executed instruction
system.cpu0.op_class::SimdSha256Hash                0      0.00%     66.67% # Class of executed instruction
system.cpu0.op_class::SimdSha256Hash2               0      0.00%     66.67% # Class of executed instruction
system.cpu0.op_class::SimdShaSigma2                 0      0.00%     66.67% # Class of executed instruction
system.cpu0.op_class::SimdShaSigma3                 0      0.00%     66.67% # Class of executed instruction
system.cpu0.op_class::SimdPredAlu                   0      0.00%     66.67% # Class of executed instruction
system.cpu0.op_class::MemRead                       2      8.33%     75.00% # Class of executed instruction
system.cpu0.op_class::MemWrite                      2      8.33%     83.33% # Class of executed instruction
system.cpu0.op_class::FloatMemRead                  4     16.67%    100.00% # Class of executed instruction
system.cpu0.op_class::FloatMemWrite                 0      0.00%    100.00% # Class of executed instruction
system.cpu0.op_class::IprAccess                     0      0.00%    100.00% # Class of executed instruction
system.cpu0.op_class::InstPrefetch                  0      0.00%    100.00% # Class of executed instruction
system.cpu0.op_class::total                        24                       # Class of executed instruction
system.cpu0.workload.numSyscalls                    0                       # Number of system calls
system.cpu1.committedInsts                         17                       # Number of instructions committed
system.cpu1.committedOps                           24                       # Number of ops (including micro ops) committed
system.cpu1.idle_fraction                           0                       # Percentage of idle cycles
system.cpu1.l2bus.snoop_filter.hit_multi_requests        45583                       # Number of requests hitting in the snoop filter with multiple (>1) holders of the requested data.
system.cpu1.l2bus.snoop_filter.hit_multi_snoops            0                       # Number of snoops hitting in the snoop filter with multiple (>1) holders of the requested data.
system.cpu1.l2bus.snoop_filter.hit_single_requests      1721414                       # Number of requests hitting in the snoop filter with a single holder of the requested data.
system.cpu1.l2bus.snoop_filter.hit_single_snoops            1                       # Number of snoops hitting in the snoop filter with a single holder of the requested data.
system.cpu1.l2bus.snoop_filter.tot_requests      3443770                       # Total number of requests made to the snoop filter.
system.cpu1.l2bus.snoop_filter.tot_snoops            1                       # Total number of snoops made to the snoop filter.
system.cpu1.mmucache.mmubus.snoop_filter.hit_multi_requests            0                       # Number of requests hitting in the snoop filter with multiple (>1) holders of the requested data.
system.cpu1.mmucache.mmubus.snoop_filter.hit_multi_snoops            0                       # Number of snoops hitting in the snoop filter with multiple (>1) holders of the requested data.
system.cpu1.mmucache.mmubus.snoop_filter.hit_single_requests            0                       # Number of requests hitting in the snoop filter with a single holder of the requested data.
system.cpu1.mmucache.mmubus.snoop_filter.hit_single_snoops            0                       # Number of snoops hitting in the snoop filter with a single holder of the requested data.
system.cpu1.mmucache.mmubus.snoop_filter.tot_requests            0                       # Total number of requests made to the snoop filter.
system.cpu1.mmucache.mmubus.snoop_filter.tot_snoops            0                       # Total number of snoops made to the snoop filter.
system.cpu1.not_idle_fraction                       1                       # Percentage of non-idle cycles
system.cpu1.numCycles                              31                       # number of cpu cycles simulated
system.cpu1.numWorkItemsCompleted                   0                       # number of work items this cpu completed
system.cpu1.numWorkItemsStarted                     0                       # number of work items this cpu started
system.cpu1.num_busy_cycles                        31                       # Number of busy cycles
system.cpu1.num_cc_register_reads                   2                       # number of times the CC registers were read
system.cpu1.num_cc_register_writes                  4                       # number of times the CC registers were written
system.cpu1.num_conditional_control_insts            0                       # number of instructions that are conditional controls
system.cpu1.num_fp_alu_accesses                    17                       # Number of float alu accesses
system.cpu1.num_fp_insts                           17                       # number of float instructions
system.cpu1.num_fp_register_reads                  36                       # number of times the floating registers were read
system.cpu1.num_fp_register_writes                 17                       # number of times the floating registers were written
system.cpu1.num_func_calls                          0                       # number of times a function call or return occured
system.cpu1.num_idle_cycles                         0                       # Number of idle cycles
system.cpu1.num_int_alu_accesses                   11                       # Number of integer alu accesses
system.cpu1.num_int_insts                          11                       # number of integer instructions
system.cpu1.num_int_register_reads                 30                       # number of times the integer registers were read
system.cpu1.num_int_register_writes                 5                       # number of times the integer registers were written
system.cpu1.num_load_insts                          6                       # Number of load instructions
system.cpu1.num_mem_refs                            8                       # number of memory refs
system.cpu1.num_store_insts                         2                       # Number of store instructions
system.cpu1.num_vec_alu_accesses                    0                       # Number of vector alu accesses
system.cpu1.num_vec_insts                           0                       # number of vector instructions
system.cpu1.num_vec_register_reads                  0                       # number of times the vector registers were read
system.cpu1.num_vec_register_writes                 0                       # number of times the vector registers were written
system.cpu1.op_class::No_OpClass                    0      0.00%      0.00% # Class of executed instruction
system.cpu1.op_class::IntAlu                        6     25.00%     25.00% # Class of executed instruction
system.cpu1.op_class::IntMult                       0      0.00%     25.00% # Class of executed instruction
system.cpu1.op_class::IntDiv                        0      0.00%     25.00% # Class of executed instruction
system.cpu1.op_class::FloatAdd                      0      0.00%     25.00% # Class of executed instruction
system.cpu1.op_class::FloatCmp                      0      0.00%     25.00% # Class of executed instruction
system.cpu1.op_class::FloatCvt                      0      0.00%     25.00% # Class of executed instruction
system.cpu1.op_class::FloatMult                     0      0.00%     25.00% # Class of executed instruction
system.cpu1.op_class::FloatMultAcc                  0      0.00%     25.00% # Class of executed instruction
system.cpu1.op_class::FloatDiv                      0      0.00%     25.00% # Class of executed instruction
system.cpu1.op_class::FloatMisc                     0      0.00%     25.00% # Class of executed instruction
system.cpu1.op_class::FloatSqrt                     0      0.00%     25.00% # Class of executed instruction
system.cpu1.op_class::SimdAdd                       0      0.00%     25.00% # Class of executed instruction
system.cpu1.op_class::SimdAddAcc                    0      0.00%     25.00% # Class of executed instruction
system.cpu1.op_class::SimdAlu                       0      0.00%     25.00% # Class of executed instruction
system.cpu1.op_class::SimdCmp                       0      0.00%     25.00% # Class of executed instruction
system.cpu1.op_class::SimdCvt                       0      0.00%     25.00% # Class of executed instruction
system.cpu1.op_class::SimdMisc                      0      0.00%     25.00% # Class of executed instruction
system.cpu1.op_class::SimdMult                      0      0.00%     25.00% # Class of executed instruction
system.cpu1.op_class::SimdMultAcc                   0      0.00%     25.00% # Class of executed instruction
system.cpu1.op_class::SimdShift                     0      0.00%     25.00% # Class of executed instruction
system.cpu1.op_class::SimdShiftAcc                  0      0.00%     25.00% # Class of executed instruction
system.cpu1.op_class::SimdDiv                       0      0.00%     25.00% # Class of executed instruction
system.cpu1.op_class::SimdSqrt                      0      0.00%     25.00% # Class of executed instruction
system.cpu1.op_class::SimdFloatAdd                  3     12.50%     37.50% # Class of executed instruction
system.cpu1.op_class::SimdFloatAlu                  0      0.00%     37.50% # Class of executed instruction
system.cpu1.op_class::SimdFloatCmp                  0      0.00%     37.50% # Class of executed instruction
system.cpu1.op_class::SimdFloatCvt                  0      0.00%     37.50% # Class of executed instruction
system.cpu1.op_class::SimdFloatDiv                  0      0.00%     37.50% # Class of executed instruction
system.cpu1.op_class::SimdFloatMisc                 0      0.00%     37.50% # Class of executed instruction
system.cpu1.op_class::SimdFloatMult                 7     29.17%     66.67% # Class of executed instruction
system.cpu1.op_class::SimdFloatMultAcc              0      0.00%     66.67% # Class of executed instruction
system.cpu1.op_class::SimdFloatSqrt                 0      0.00%     66.67% # Class of executed instruction
system.cpu1.op_class::SimdReduceAdd                 0      0.00%     66.67% # Class of executed instruction
system.cpu1.op_class::SimdReduceAlu                 0      0.00%     66.67% # Class of executed instruction
system.cpu1.op_class::SimdReduceCmp                 0      0.00%     66.67% # Class of executed instruction
system.cpu1.op_class::SimdFloatReduceAdd            0      0.00%     66.67% # Class of executed instruction
system.cpu1.op_class::SimdFloatReduceCmp            0      0.00%     66.67% # Class of executed instruction
system.cpu1.op_class::SimdAes                       0      0.00%     66.67% # Class of executed instruction
system.cpu1.op_class::SimdAesMix                    0      0.00%     66.67% # Class of executed instruction
system.cpu1.op_class::SimdSha1Hash                  0      0.00%     66.67% # Class of executed instruction
system.cpu1.op_class::SimdSha1Hash2                 0      0.00%     66.67% # Class of executed instruction
system.cpu1.op_class::SimdSha256Hash                0      0.00%     66.67% # Class of executed instruction
system.cpu1.op_class::SimdSha256Hash2               0      0.00%     66.67% # Class of executed instruction
system.cpu1.op_class::SimdShaSigma2                 0      0.00%     66.67% # Class of executed instruction
system.cpu1.op_class::SimdShaSigma3                 0      0.00%     66.67% # Class of executed instruction
system.cpu1.op_class::SimdPredAlu                   0      0.00%     66.67% # Class of executed instruction
system.cpu1.op_class::MemRead                       2      8.33%     75.00% # Class of executed instruction
system.cpu1.op_class::MemWrite                      2      8.33%     83.33% # Class of executed instruction
system.cpu1.op_class::FloatMemRead                  4     16.67%    100.00% # Class of executed instruction
system.cpu1.op_class::FloatMemWrite                 0      0.00%    100.00% # Class of executed instruction
system.cpu1.op_class::IprAccess                     0      0.00%    100.00% # Class of executed instruction
system.cpu1.op_class::InstPrefetch                  0      0.00%    100.00% # Class of executed instruction
system.cpu1.op_class::total                        24                       # Class of executed instruction
system.cpu1.workload.numSyscalls                    0                       # Number of system calls
system.cpu2.committedInsts                         17                       # Number of instructions committed
system.cpu2.committedOps                           24                       # Number of ops (including micro ops) committed
system.cpu2.idle_fraction                           0                       # Percentage of idle cycles
system.cpu2.l2bus.snoop_filter.hit_multi_requests        45583                       # Number of requests hitting in the snoop filter with multiple (>1) holders of the requested data.
system.cpu2.l2bus.snoop_filter.hit_multi_snoops            0                       # Number of snoops hitting in the snoop filter with multiple (>1) holders of the requested data.
system.cpu2.l2bus.snoop_filter.hit_single_requests      1721407                       # Number of requests hitting in the snoop filter with a single holder of the requested data.
system.cpu2.l2bus.snoop_filter.hit_single_snoops            1                       # Number of snoops hitting in the snoop filter with a single holder of the requested data.
system.cpu2.l2bus.snoop_filter.tot_requests      3443758                       # Total number of requests made to the snoop filter.
system.cpu2.l2bus.snoop_filter.tot_snoops            1                       # Total number of snoops made to the snoop filter.
system.cpu2.mmucache.mmubus.snoop_filter.hit_multi_requests            0                       # Number of requests hitting in the snoop filter with multiple (>1) holders of the requested data.
system.cpu2.mmucache.mmubus.snoop_filter.hit_multi_snoops            0                       # Number of snoops hitting in the snoop filter with multiple (>1) holders of the requested data.
system.cpu2.mmucache.mmubus.snoop_filter.hit_single_requests            0                       # Number of requests hitting in the snoop filter with a single holder of the requested data.
system.cpu2.mmucache.mmubus.snoop_filter.hit_single_snoops            0                       # Number of snoops hitting in the snoop filter with a single holder of the requested data.
system.cpu2.mmucache.mmubus.snoop_filter.tot_requests            0                       # Total number of requests made to the snoop filter.
system.cpu2.mmucache.mmubus.snoop_filter.tot_snoops            0                       # Total number of snoops made to the snoop filter.
system.cpu2.not_idle_fraction                       1                       # Percentage of non-idle cycles
system.cpu2.numCycles                              31                       # number of cpu cycles simulated
system.cpu2.numWorkItemsCompleted                   0                       # number of work items this cpu completed
system.cpu2.numWorkItemsStarted                     0                       # number of work items this cpu started
system.cpu2.num_busy_cycles                        31                       # Number of busy cycles
system.cpu2.num_cc_register_reads                   2                       # number of times the CC registers were read
system.cpu2.num_cc_register_writes                  4                       # number of times the CC registers were written
system.cpu2.num_conditional_control_insts            0                       # number of instructions that are conditional controls
system.cpu2.num_fp_alu_accesses                    17                       # Number of float alu accesses
system.cpu2.num_fp_insts                           17                       # number of float instructions
system.cpu2.num_fp_register_reads                  36                       # number of times the floating registers were read
system.cpu2.num_fp_register_writes                 17                       # number of times the floating registers were written
system.cpu2.num_func_calls                          0                       # number of times a function call or return occured
system.cpu2.num_idle_cycles                         0                       # Number of idle cycles
system.cpu2.num_int_alu_accesses                   11                       # Number of integer alu accesses
system.cpu2.num_int_insts                          11                       # number of integer instructions
system.cpu2.num_int_register_reads                 30                       # number of times the integer registers were read
system.cpu2.num_int_register_writes                 5                       # number of times the integer registers were written
system.cpu2.num_load_insts                          6                       # Number of load instructions
system.cpu2.num_mem_refs                            8                       # number of memory refs
system.cpu2.num_store_insts                         2                       # Number of store instructions
system.cpu2.num_vec_alu_accesses                    0                       # Number of vector alu accesses
system.cpu2.num_vec_insts                           0                       # number of vector instructions
system.cpu2.num_vec_register_reads                  0                       # number of times the vector registers were read
system.cpu2.num_vec_register_writes                 0                       # number of times the vector registers were written
system.cpu2.op_class::No_OpClass                    0      0.00%      0.00% # Class of executed instruction
system.cpu2.op_class::IntAlu                        6     25.00%     25.00% # Class of executed instruction
system.cpu2.op_class::IntMult                       0      0.00%     25.00% # Class of executed instruction
system.cpu2.op_class::IntDiv                        0      0.00%     25.00% # Class of executed instruction
system.cpu2.op_class::FloatAdd                      0      0.00%     25.00% # Class of executed instruction
system.cpu2.op_class::FloatCmp                      0      0.00%     25.00% # Class of executed instruction
system.cpu2.op_class::FloatCvt                      0      0.00%     25.00% # Class of executed instruction
system.cpu2.op_class::FloatMult                     0      0.00%     25.00% # Class of executed instruction
system.cpu2.op_class::FloatMultAcc                  0      0.00%     25.00% # Class of executed instruction
system.cpu2.op_class::FloatDiv                      0      0.00%     25.00% # Class of executed instruction
system.cpu2.op_class::FloatMisc                     0      0.00%     25.00% # Class of executed instruction
system.cpu2.op_class::FloatSqrt                     0      0.00%     25.00% # Class of executed instruction
system.cpu2.op_class::SimdAdd                       0      0.00%     25.00% # Class of executed instruction
system.cpu2.op_class::SimdAddAcc                    0      0.00%     25.00% # Class of executed instruction
system.cpu2.op_class::SimdAlu                       0      0.00%     25.00% # Class of executed instruction
system.cpu2.op_class::SimdCmp                       0      0.00%     25.00% # Class of executed instruction
system.cpu2.op_class::SimdCvt                       0      0.00%     25.00% # Class of executed instruction
system.cpu2.op_class::SimdMisc                      0      0.00%     25.00% # Class of executed instruction
system.cpu2.op_class::SimdMult                      0      0.00%     25.00% # Class of executed instruction
system.cpu2.op_class::SimdMultAcc                   0      0.00%     25.00% # Class of executed instruction
system.cpu2.op_class::SimdShift                     0      0.00%     25.00% # Class of executed instruction
system.cpu2.op_class::SimdShiftAcc                  0      0.00%     25.00% # Class of executed instruction
system.cpu2.op_class::SimdDiv                       0      0.00%     25.00% # Class of executed instruction
system.cpu2.op_class::SimdSqrt                      0      0.00%     25.00% # Class of executed instruction
system.cpu2.op_class::SimdFloatAdd                  3     12.50%     37.50% # Class of executed instruction
system.cpu2.op_class::SimdFloatAlu                  0      0.00%     37.50% # Class of executed instruction
system.cpu2.op_class::SimdFloatCmp                  0      0.00%     37.50% # Class of executed instruction
system.cpu2.op_class::SimdFloatCvt                  0      0.00%     37.50% # Class of executed instruction
system.cpu2.op_class::SimdFloatDiv                  0      0.00%     37.50% # Class of executed instruction
system.cpu2.op_class::SimdFloatMisc                 0      0.00%     37.50% # Class of executed instruction
system.cpu2.op_class::SimdFloatMult                 7     29.17%     66.67% # Class of executed instruction
system.cpu2.op_class::SimdFloatMultAcc              0      0.00%     66.67% # Class of executed instruction
system.cpu2.op_class::SimdFloatSqrt                 0      0.00%     66.67% # Class of executed instruction
system.cpu2.op_class::SimdReduceAdd                 0      0.00%     66.67% # Class of executed instruction
system.cpu2.op_class::SimdReduceAlu                 0      0.00%     66.67% # Class of executed instruction
system.cpu2.op_class::SimdReduceCmp                 0      0.00%     66.67% # Class of executed instruction
system.cpu2.op_class::SimdFloatReduceAdd            0      0.00%     66.67% # Class of executed instruction
system.cpu2.op_class::SimdFloatReduceCmp            0      0.00%     66.67% # Class of executed instruction
system.cpu2.op_class::SimdAes                       0      0.00%     66.67% # Class of executed instruction
system.cpu2.op_class::SimdAesMix                    0      0.00%     66.67% # Class of executed instruction
system.cpu2.op_class::SimdSha1Hash                  0      0.00%     66.67% # Class of executed instruction
system.cpu2.op_class::SimdSha1Hash2                 0      0.00%     66.67% # Class of executed instruction
system.cpu2.op_class::SimdSha256Hash                0      0.00%     66.67% # Class of executed instruction
system.cpu2.op_class::SimdSha256Hash2               0      0.00%     66.67% # Class of executed instruction
system.cpu2.op_class::SimdShaSigma2                 0      0.00%     66.67% # Class of executed instruction
system.cpu2.op_class::SimdShaSigma3                 0      0.00%     66.67% # Class of executed instruction
system.cpu2.op_class::SimdPredAlu                   0      0.00%     66.67% # Class of executed instruction
system.cpu2.op_class::MemRead                       2      8.33%     75.00% # Class of executed instruction
system.cpu2.op_class::MemWrite                      2      8.33%     83.33% # Class of executed instruction
system.cpu2.op_class::FloatMemRead                  4     16.67%    100.00% # Class of executed instruction
system.cpu2.op_class::FloatMemWrite                 0      0.00%    100.00% # Class of executed instruction
system.cpu2.op_class::IprAccess                     0      0.00%    100.00% # Class of executed instruction
system.cpu2.op_class::InstPrefetch                  0      0.00%    100.00% # Class of executed instruction
system.cpu2.op_class::total                        24                       # Class of executed instruction
system.cpu2.workload.numSyscalls                    0                       # Number of system calls
system.cpu3.committedInsts                         17                       # Number of instructions committed
system.cpu3.committedOps                           24                       # Number of ops (including micro ops) committed
system.cpu3.idle_fraction                           0                       # Percentage of idle cycles
system.cpu3.l2bus.snoop_filter.hit_multi_requests        45586                       # Number of requests hitting in the snoop filter with multiple (>1) holders of the requested data.
system.cpu3.l2bus.snoop_filter.hit_multi_snoops            0                       # Number of snoops hitting in the snoop filter with multiple (>1) holders of the requested data.
system.cpu3.l2bus.snoop_filter.hit_single_requests      1721462                       # Number of requests hitting in the snoop filter with a single holder of the requested data.
system.cpu3.l2bus.snoop_filter.hit_single_snoops            1                       # Number of snoops hitting in the snoop filter with a single holder of the requested data.
system.cpu3.l2bus.snoop_filter.tot_requests      3443870                       # Total number of requests made to the snoop filter.
system.cpu3.l2bus.snoop_filter.tot_snoops            1                       # Total number of snoops made to the snoop filter.
system.cpu3.mmucache.mmubus.snoop_filter.hit_multi_requests            0                       # Number of requests hitting in the snoop filter with multiple (>1) holders of the requested data.
system.cpu3.mmucache.mmubus.snoop_filter.hit_multi_snoops            0                       # Number of snoops hitting in the snoop filter with multiple (>1) holders of the requested data.
system.cpu3.mmucache.mmubus.snoop_filter.hit_single_requests            0                       # Number of requests hitting in the snoop filter with a single holder of the requested data.
system.cpu3.mmucache.mmubus.snoop_filter.hit_single_snoops            0                       # Number of snoops hitting in the snoop filter with a single holder of the requested data.
system.cpu3.mmucache.mmubus.snoop_filter.tot_requests            0                       # Total number of requests made to the snoop filter.
system.cpu3.mmucache.mmubus.snoop_filter.tot_snoops            0                       # Total number of snoops made to the snoop filter.
system.cpu3.not_idle_fraction                       1                       # Percentage of non-idle cycles
system.cpu3.numCycles                              31                       # number of cpu cycles simulated
system.cpu3.numWorkItemsCompleted                   0                       # number of work items this cpu completed
system.cpu3.numWorkItemsStarted                     0                       # number of work items this cpu started
system.cpu3.num_busy_cycles                        31                       # Number of busy cycles
system.cpu3.num_cc_register_reads                   2                       # number of times the CC registers were read
system.cpu3.num_cc_register_writes                  4                       # number of times the CC registers were written
system.cpu3.num_conditional_control_insts            0                       # number of instructions that are conditional controls
system.cpu3.num_fp_alu_accesses                    17                       # Number of float alu accesses
system.cpu3.num_fp_insts                           17                       # number of float instructions
system.cpu3.num_fp_register_reads                  36                       # number of times the floating registers were read
system.cpu3.num_fp_register_writes                 17                       # number of times the floating registers were written
system.cpu3.num_func_calls                          0                       # number of times a function call or return occured
system.cpu3.num_idle_cycles                         0                       # Number of idle cycles
system.cpu3.num_int_alu_accesses                   11                       # Number of integer alu accesses
system.cpu3.num_int_insts                          11                       # number of integer instructions
system.cpu3.num_int_register_reads                 30                       # number of times the integer registers were read
system.cpu3.num_int_register_writes                 5                       # number of times the integer registers were written
system.cpu3.num_load_insts                          6                       # Number of load instructions
system.cpu3.num_mem_refs                            8                       # number of memory refs
system.cpu3.num_store_insts                         2                       # Number of store instructions
system.cpu3.num_vec_alu_accesses                    0                       # Number of vector alu accesses
system.cpu3.num_vec_insts                           0                       # number of vector instructions
system.cpu3.num_vec_register_reads                  0                       # number of times the vector registers were read
system.cpu3.num_vec_register_writes                 0                       # number of times the vector registers were written
system.cpu3.op_class::No_OpClass                    0      0.00%      0.00% # Class of executed instruction
system.cpu3.op_class::IntAlu                        6     25.00%     25.00% # Class of executed instruction
system.cpu3.op_class::IntMult                       0      0.00%     25.00% # Class of executed instruction
system.cpu3.op_class::IntDiv                        0      0.00%     25.00% # Class of executed instruction
system.cpu3.op_class::FloatAdd                      0      0.00%     25.00% # Class of executed instruction
system.cpu3.op_class::FloatCmp                      0      0.00%     25.00% # Class of executed instruction
system.cpu3.op_class::FloatCvt                      0      0.00%     25.00% # Class of executed instruction
system.cpu3.op_class::FloatMult                     0      0.00%     25.00% # Class of executed instruction
system.cpu3.op_class::FloatMultAcc                  0      0.00%     25.00% # Class of executed instruction
system.cpu3.op_class::FloatDiv                      0      0.00%     25.00% # Class of executed instruction
system.cpu3.op_class::FloatMisc                     0      0.00%     25.00% # Class of executed instruction
system.cpu3.op_class::FloatSqrt                     0      0.00%     25.00% # Class of executed instruction
system.cpu3.op_class::SimdAdd                       0      0.00%     25.00% # Class of executed instruction
system.cpu3.op_class::SimdAddAcc                    0      0.00%     25.00% # Class of executed instruction
system.cpu3.op_class::SimdAlu                       0      0.00%     25.00% # Class of executed instruction
system.cpu3.op_class::SimdCmp                       0      0.00%     25.00% # Class of executed instruction
system.cpu3.op_class::SimdCvt                       0      0.00%     25.00% # Class of executed instruction
system.cpu3.op_class::SimdMisc                      0      0.00%     25.00% # Class of executed instruction
system.cpu3.op_class::SimdMult                      0      0.00%     25.00% # Class of executed instruction
system.cpu3.op_class::SimdMultAcc                   0      0.00%     25.00% # Class of executed instruction
system.cpu3.op_class::SimdShift                     0      0.00%     25.00% # Class of executed instruction
system.cpu3.op_class::SimdShiftAcc                  0      0.00%     25.00% # Class of executed instruction
system.cpu3.op_class::SimdDiv                       0      0.00%     25.00% # Class of executed instruction
system.cpu3.op_class::SimdSqrt                      0      0.00%     25.00% # Class of executed instruction
system.cpu3.op_class::SimdFloatAdd                  3     12.50%     37.50% # Class of executed instruction
system.cpu3.op_class::SimdFloatAlu                  0      0.00%     37.50% # Class of executed instruction
system.cpu3.op_class::SimdFloatCmp                  0      0.00%     37.50% # Class of executed instruction
system.cpu3.op_class::SimdFloatCvt                  0      0.00%     37.50% # Class of executed instruction
system.cpu3.op_class::SimdFloatDiv                  0      0.00%     37.50% # Class of executed instruction
system.cpu3.op_class::SimdFloatMisc                 0      0.00%     37.50% # Class of executed instruction
system.cpu3.op_class::SimdFloatMult                 7     29.17%     66.67% # Class of executed instruction
system.cpu3.op_class::SimdFloatMultAcc              0      0.00%     66.67% # Class of executed instruction
system.cpu3.op_class::SimdFloatSqrt                 0      0.00%     66.67% # Class of executed instruction
system.cpu3.op_class::SimdReduceAdd                 0      0.00%     66.67% # Class of executed instruction
system.cpu3.op_class::SimdReduceAlu                 0      0.00%     66.67% # Class of executed instruction
system.cpu3.op_class::SimdReduceCmp                 0      0.00%     66.67% # Class of executed instruction
system.cpu3.op_class::SimdFloatReduceAdd            0      0.00%     66.67% # Class of executed instruction
system.cpu3.op_class::SimdFloatReduceCmp            0      0.00%     66.67% # Class of executed instruction
system.cpu3.op_class::SimdAes                       0      0.00%     66.67% # Class of executed instruction
system.cpu3.op_class::SimdAesMix                    0      0.00%     66.67% # Class of executed instruction
system.cpu3.op_class::SimdSha1Hash                  0      0.00%     66.67% # Class of executed instruction
system.cpu3.op_class::SimdSha1Hash2                 0      0.00%     66.67% # Class of executed instruction
system.cpu3.op_class::SimdSha256Hash                0      0.00%     66.67% # Class of executed instruction
system.cpu3.op_class::SimdSha256Hash2               0      0.00%     66.67% # Class of executed instruction
system.cpu3.op_class::SimdShaSigma2                 0      0.00%     66.67% # Class of executed instruction
system.cpu3.op_class::SimdShaSigma3                 0      0.00%     66.67% # Class of executed instruction
system.cpu3.op_class::SimdPredAlu                   0      0.00%     66.67% # Class of executed instruction
system.cpu3.op_class::MemRead                       2      8.33%     75.00% # Class of executed instruction
system.cpu3.op_class::MemWrite                      2      8.33%     83.33% # Class of executed instruction
system.cpu3.op_class::FloatMemRead                  4     16.67%    100.00% # Class of executed instruction
system.cpu3.op_class::FloatMemWrite                 0      0.00%    100.00% # Class of executed instruction
system.cpu3.op_class::IprAccess                     0      0.00%    100.00% # Class of executed instruction
system.cpu3.op_class::InstPrefetch                  0      0.00%    100.00% # Class of executed instruction
system.cpu3.op_class::total                        24                       # Class of executed instruction
system.cpu3.workload.numSyscalls                    0                       # Number of system calls
system.l3bus.snoop_filter.hit_multi_requests            0                       # Number of requests hitting in the snoop filter with multiple (>1) holders of the requested data.
system.l3bus.snoop_filter.hit_multi_snoops            0                       # Number of snoops hitting in the snoop filter with multiple (>1) holders of the requested data.
system.l3bus.snoop_filter.hit_single_requests            0                       # Number of requests hitting in the snoop filter with a single holder of the requested data.
system.l3bus.snoop_filter.hit_single_snoops            0                       # Number of snoops hitting in the snoop filter with a single holder of the requested data.
system.l3bus.snoop_filter.tot_requests           5502                       # Total number of requests made to the snoop filter.
system.l3bus.snoop_filter.tot_snoops                0                       # Total number of snoops made to the snoop filter.
system.membus.snoop_filter.hit_multi_requests            0                       # Number of requests hitting in the snoop filter with multiple (>1) holders of the requested data.
system.membus.snoop_filter.hit_multi_snoops            0                       # Number of snoops hitting in the snoop filter with multiple (>1) holders of the requested data.
system.membus.snoop_filter.hit_single_requests            0                       # Number of requests hitting in the snoop filter with a single holder of the requested data.
system.membus.snoop_filter.hit_single_snoops            0                       # Number of snoops hitting in the snoop filter with a single holder of the requested data.
system.membus.snoop_filter.tot_requests          5502                       # Total number of requests made to the snoop filter.
system.membus.snoop_filter.tot_snoops               0                       # Total number of snoops made to the snoop filter.
system.switch_cpus0.cc_regfile_reads        204541072                       # number of cc regfile reads
system.switch_cpus0.cc_regfile_writes       100509865                       # number of cc regfile writes
system.switch_cpus0.committedInsts          249994251                       # Number of Instructions Simulated
system.switch_cpus0.committedOps            450489256                       # Number of Ops (including micro ops) Simulated
system.switch_cpus0.cpi                      0.398006                       # CPI: Cycles Per Instruction
system.switch_cpus0.cpi_total                0.398006                       # CPI: Total CPI of All Threads
system.switch_cpus0.fp_regfile_reads        146662356                       # number of floating regfile reads
system.switch_cpus0.fp_regfile_writes        84012895                       # number of floating regfile writes
system.switch_cpus0.idleCycles                  87187                       # Total number of cycles that the CPU has spent unscheduled due to idling
system.switch_cpus0.iew.branchMispredicts      1092655                       # Number of branch mispredicts detected at execute
system.switch_cpus0.iew.exec_branches        46301957                       # Number of branches executed
system.switch_cpus0.iew.exec_nop                    0                       # number of nop insts executed
system.switch_cpus0.iew.exec_rate            4.821218                       # Inst execution rate
system.switch_cpus0.iew.exec_refs           140829175                       # number of memory reference insts executed
system.switch_cpus0.iew.exec_stores          42654595                       # Number of stores executed
system.switch_cpus0.iew.exec_swp                    0                       # number of swp insts executed
system.switch_cpus0.iew.iewBlockCycles        6052657                       # Number of cycles IEW is blocking
system.switch_cpus0.iew.iewDispLoadInsts    102975959                       # Number of dispatched load instructions
system.switch_cpus0.iew.iewDispNonSpecInsts            8                       # Number of dispatched non-speculative instructions
system.switch_cpus0.iew.iewDispSquashedInsts          261                       # Number of squashed instructions skipped by dispatch
system.switch_cpus0.iew.iewDispStoreInsts     45385103                       # Number of dispatched store instructions
system.switch_cpus0.iew.iewDispatchedInsts    502317217                       # Number of instructions dispatched to IQ
system.switch_cpus0.iew.iewExecLoadInsts     98174580                       # Number of load instructions executed
system.switch_cpus0.iew.iewExecSquashedInsts      3011524                       # Number of squashed instructions skipped in execute
system.switch_cpus0.iew.iewExecutedInsts    479707859                       # Number of executed instructions
system.switch_cpus0.iew.iewIQFullEvents         10021                       # Number of times the IQ has become full, causing a stall
system.switch_cpus0.iew.iewIdleCycles               0                       # Number of cycles IEW is idle
system.switch_cpus0.iew.iewLSQFullEvents       182342                       # Number of times the LSQ has become full, causing a stall
system.switch_cpus0.iew.iewSquashCycles        993305                       # Number of cycles IEW is squashing
system.switch_cpus0.iew.iewUnblockCycles       196036                       # Number of cycles IEW is unblocking
system.switch_cpus0.iew.memOrderViolationEvents        17482                       # Number of memory order violations
system.switch_cpus0.iew.predictedNotTakenIncorrect       731687                       # Number of branches that were predicted not taken incorrectly
system.switch_cpus0.iew.predictedTakenIncorrect       360968                       # Number of branches that were predicted taken incorrectly
system.switch_cpus0.iew.wb_consumers        628036332                       # num instructions consuming a value
system.switch_cpus0.iew.wb_count            477932896                       # cumulative count of insts written-back
system.switch_cpus0.iew.wb_fanout            0.567129                       # average fanout of values written-back
system.switch_cpus0.iew.wb_producers        356177348                       # num instructions producing a value
system.switch_cpus0.iew.wb_rate              4.803379                       # insts written-back per cycle
system.switch_cpus0.iew.wb_sent             479203337                       # cumulative count of insts sent to commit
system.switch_cpus0.int_regfile_reads       664462551                       # number of integer regfile reads
system.switch_cpus0.int_regfile_writes      299457448                       # number of integer regfile writes
system.switch_cpus0.ipc                      2.512522                       # IPC: Instructions Per Cycle
system.switch_cpus0.ipc_total                2.512522                       # IPC: Total IPC of All Threads
system.switch_cpus0.iq.FU_type_0::No_OpClass      2622134      0.54%      0.54% # Type of FU issued
system.switch_cpus0.iq.FU_type_0::IntAlu    289463422     59.97%     60.51% # Type of FU issued
system.switch_cpus0.iq.FU_type_0::IntMult       962244      0.20%     60.71% # Type of FU issued
system.switch_cpus0.iq.FU_type_0::IntDiv            0      0.00%     60.71% # Type of FU issued
system.switch_cpus0.iq.FU_type_0::FloatAdd      1082754      0.22%     60.93% # Type of FU issued
system.switch_cpus0.iq.FU_type_0::FloatCmp            0      0.00%     60.93% # Type of FU issued
system.switch_cpus0.iq.FU_type_0::FloatCvt            0      0.00%     60.93% # Type of FU issued
system.switch_cpus0.iq.FU_type_0::FloatMult            0      0.00%     60.93% # Type of FU issued
system.switch_cpus0.iq.FU_type_0::FloatMultAcc            0      0.00%     60.93% # Type of FU issued
system.switch_cpus0.iq.FU_type_0::FloatDiv            0      0.00%     60.93% # Type of FU issued
system.switch_cpus0.iq.FU_type_0::FloatMisc            0      0.00%     60.93% # Type of FU issued
system.switch_cpus0.iq.FU_type_0::FloatSqrt            0      0.00%     60.93% # Type of FU issued
system.switch_cpus0.iq.FU_type_0::SimdAdd            0      0.00%     60.93% # Type of FU issued
system.switch_cpus0.iq.FU_type_0::SimdAddAcc            0      0.00%     60.93% # Type of FU issued
system.switch_cpus0.iq.FU_type_0::SimdAlu      2983067      0.62%     61.55% # Type of FU issued
system.switch_cpus0.iq.FU_type_0::SimdCmp            0      0.00%     61.55% # Type of FU issued
system.switch_cpus0.iq.FU_type_0::SimdCvt            0      0.00%     61.55% # Type of FU issued
system.switch_cpus0.iq.FU_type_0::SimdMisc        80075      0.02%     61.57% # Type of FU issued
system.switch_cpus0.iq.FU_type_0::SimdMult            0      0.00%     61.57% # Type of FU issued
system.switch_cpus0.iq.FU_type_0::SimdMultAcc            0      0.00%     61.57% # Type of FU issued
system.switch_cpus0.iq.FU_type_0::SimdShift            0      0.00%     61.57% # Type of FU issued
system.switch_cpus0.iq.FU_type_0::SimdShiftAcc            0      0.00%     61.57% # Type of FU issued
system.switch_cpus0.iq.FU_type_0::SimdDiv            0      0.00%     61.57% # Type of FU issued
system.switch_cpus0.iq.FU_type_0::SimdSqrt            0      0.00%     61.57% # Type of FU issued
system.switch_cpus0.iq.FU_type_0::SimdFloatAdd     17493192      3.62%     65.19% # Type of FU issued
system.switch_cpus0.iq.FU_type_0::SimdFloatAlu            0      0.00%     65.19% # Type of FU issued
system.switch_cpus0.iq.FU_type_0::SimdFloatCmp        61424      0.01%     65.20% # Type of FU issued
system.switch_cpus0.iq.FU_type_0::SimdFloatCvt      7580167      1.57%     66.77% # Type of FU issued
system.switch_cpus0.iq.FU_type_0::SimdFloatDiv       605480      0.13%     66.90% # Type of FU issued
system.switch_cpus0.iq.FU_type_0::SimdFloatMisc            0      0.00%     66.90% # Type of FU issued
system.switch_cpus0.iq.FU_type_0::SimdFloatMult     17349455      3.59%     70.49% # Type of FU issued
system.switch_cpus0.iq.FU_type_0::SimdFloatMultAcc            0      0.00%     70.49% # Type of FU issued
system.switch_cpus0.iq.FU_type_0::SimdFloatSqrt        38394      0.01%     70.50% # Type of FU issued
system.switch_cpus0.iq.FU_type_0::SimdReduceAdd            0      0.00%     70.50% # Type of FU issued
system.switch_cpus0.iq.FU_type_0::SimdReduceAlu            0      0.00%     70.50% # Type of FU issued
system.switch_cpus0.iq.FU_type_0::SimdReduceCmp            0      0.00%     70.50% # Type of FU issued
system.switch_cpus0.iq.FU_type_0::SimdFloatReduceAdd            0      0.00%     70.50% # Type of FU issued
system.switch_cpus0.iq.FU_type_0::SimdFloatReduceCmp            0      0.00%     70.50% # Type of FU issued
system.switch_cpus0.iq.FU_type_0::SimdAes            0      0.00%     70.50% # Type of FU issued
system.switch_cpus0.iq.FU_type_0::SimdAesMix            0      0.00%     70.50% # Type of FU issued
system.switch_cpus0.iq.FU_type_0::SimdSha1Hash            0      0.00%     70.50% # Type of FU issued
system.switch_cpus0.iq.FU_type_0::SimdSha1Hash2            0      0.00%     70.50% # Type of FU issued
system.switch_cpus0.iq.FU_type_0::SimdSha256Hash            0      0.00%     70.50% # Type of FU issued
system.switch_cpus0.iq.FU_type_0::SimdSha256Hash2            0      0.00%     70.50% # Type of FU issued
system.switch_cpus0.iq.FU_type_0::SimdShaSigma2            0      0.00%     70.50% # Type of FU issued
system.switch_cpus0.iq.FU_type_0::SimdShaSigma3            0      0.00%     70.50% # Type of FU issued
system.switch_cpus0.iq.FU_type_0::SimdPredAlu            0      0.00%     70.50% # Type of FU issued
system.switch_cpus0.iq.FU_type_0::MemRead     61655915     12.77%     83.27% # Type of FU issued
system.switch_cpus0.iq.FU_type_0::MemWrite     36575619      7.58%     90.85% # Type of FU issued
system.switch_cpus0.iq.FU_type_0::FloatMemRead     37776775      7.83%     98.68% # Type of FU issued
system.switch_cpus0.iq.FU_type_0::FloatMemWrite      6389272      1.32%    100.00% # Type of FU issued
system.switch_cpus0.iq.FU_type_0::IprAccess            0      0.00%    100.00% # Type of FU issued
system.switch_cpus0.iq.FU_type_0::InstPrefetch            0      0.00%    100.00% # Type of FU issued
system.switch_cpus0.iq.FU_type_0::total     482719389                       # Type of FU issued
system.switch_cpus0.iq.fp_alu_accesses      102875263                       # Number of floating point alu accesses
system.switch_cpus0.iq.fp_inst_queue_reads    200745744                       # Number of floating instruction queue reads
system.switch_cpus0.iq.fp_inst_queue_wakeup_accesses     96432589                       # Number of floating instruction queue wakeup accesses
system.switch_cpus0.iq.fp_inst_queue_writes    108395045                       # Number of floating instruction queue writes
system.switch_cpus0.iq.fu_busy_cnt           13678711                       # FU busy when requested
system.switch_cpus0.iq.fu_busy_rate          0.028337                       # FU busy rate (busy events/executed inst)
system.switch_cpus0.iq.fu_full::No_OpClass            0      0.00%      0.00% # attempts to use FU when none available
system.switch_cpus0.iq.fu_full::IntAlu        4037043     29.51%     29.51% # attempts to use FU when none available
system.switch_cpus0.iq.fu_full::IntMult             0      0.00%     29.51% # attempts to use FU when none available
system.switch_cpus0.iq.fu_full::IntDiv              0      0.00%     29.51% # attempts to use FU when none available
system.switch_cpus0.iq.fu_full::FloatAdd         9891      0.07%     29.59% # attempts to use FU when none available
system.switch_cpus0.iq.fu_full::FloatCmp            0      0.00%     29.59% # attempts to use FU when none available
system.switch_cpus0.iq.fu_full::FloatCvt            0      0.00%     29.59% # attempts to use FU when none available
system.switch_cpus0.iq.fu_full::FloatMult            0      0.00%     29.59% # attempts to use FU when none available
system.switch_cpus0.iq.fu_full::FloatMultAcc            0      0.00%     29.59% # attempts to use FU when none available
system.switch_cpus0.iq.fu_full::FloatDiv            0      0.00%     29.59% # attempts to use FU when none available
system.switch_cpus0.iq.fu_full::FloatMisc            0      0.00%     29.59% # attempts to use FU when none available
system.switch_cpus0.iq.fu_full::FloatSqrt            0      0.00%     29.59% # attempts to use FU when none available
system.switch_cpus0.iq.fu_full::SimdAdd             0      0.00%     29.59% # attempts to use FU when none available
system.switch_cpus0.iq.fu_full::SimdAddAcc            0      0.00%     29.59% # attempts to use FU when none available
system.switch_cpus0.iq.fu_full::SimdAlu        217335      1.59%     31.17% # attempts to use FU when none available
system.switch_cpus0.iq.fu_full::SimdCmp             0      0.00%     31.17% # attempts to use FU when none available
system.switch_cpus0.iq.fu_full::SimdCvt             0      0.00%     31.17% # attempts to use FU when none available
system.switch_cpus0.iq.fu_full::SimdMisc            0      0.00%     31.17% # attempts to use FU when none available
system.switch_cpus0.iq.fu_full::SimdMult            0      0.00%     31.17% # attempts to use FU when none available
system.switch_cpus0.iq.fu_full::SimdMultAcc            0      0.00%     31.17% # attempts to use FU when none available
system.switch_cpus0.iq.fu_full::SimdShift            0      0.00%     31.17% # attempts to use FU when none available
system.switch_cpus0.iq.fu_full::SimdShiftAcc            0      0.00%     31.17% # attempts to use FU when none available
system.switch_cpus0.iq.fu_full::SimdDiv             0      0.00%     31.17% # attempts to use FU when none available
system.switch_cpus0.iq.fu_full::SimdSqrt            0      0.00%     31.17% # attempts to use FU when none available
system.switch_cpus0.iq.fu_full::SimdFloatAdd       506522      3.70%     34.88% # attempts to use FU when none available
system.switch_cpus0.iq.fu_full::SimdFloatAlu            0      0.00%     34.88% # attempts to use FU when none available
system.switch_cpus0.iq.fu_full::SimdFloatCmp            0      0.00%     34.88% # attempts to use FU when none available
system.switch_cpus0.iq.fu_full::SimdFloatCvt        54507      0.40%     35.28% # attempts to use FU when none available
system.switch_cpus0.iq.fu_full::SimdFloatDiv            0      0.00%     35.28% # attempts to use FU when none available
system.switch_cpus0.iq.fu_full::SimdFloatMisc            0      0.00%     35.28% # attempts to use FU when none available
system.switch_cpus0.iq.fu_full::SimdFloatMult       340582      2.49%     37.77% # attempts to use FU when none available
system.switch_cpus0.iq.fu_full::SimdFloatMultAcc            0      0.00%     37.77% # attempts to use FU when none available
system.switch_cpus0.iq.fu_full::SimdFloatSqrt            0      0.00%     37.77% # attempts to use FU when none available
system.switch_cpus0.iq.fu_full::SimdReduceAdd            0      0.00%     37.77% # attempts to use FU when none available
system.switch_cpus0.iq.fu_full::SimdReduceAlu            0      0.00%     37.77% # attempts to use FU when none available
system.switch_cpus0.iq.fu_full::SimdReduceCmp            0      0.00%     37.77% # attempts to use FU when none available
system.switch_cpus0.iq.fu_full::SimdFloatReduceAdd            0      0.00%     37.77% # attempts to use FU when none available
system.switch_cpus0.iq.fu_full::SimdFloatReduceCmp            0      0.00%     37.77% # attempts to use FU when none available
system.switch_cpus0.iq.fu_full::SimdAes             0      0.00%     37.77% # attempts to use FU when none available
system.switch_cpus0.iq.fu_full::SimdAesMix            0      0.00%     37.77% # attempts to use FU when none available
system.switch_cpus0.iq.fu_full::SimdSha1Hash            0      0.00%     37.77% # attempts to use FU when none available
system.switch_cpus0.iq.fu_full::SimdSha1Hash2            0      0.00%     37.77% # attempts to use FU when none available
system.switch_cpus0.iq.fu_full::SimdSha256Hash            0      0.00%     37.77% # attempts to use FU when none available
system.switch_cpus0.iq.fu_full::SimdSha256Hash2            0      0.00%     37.77% # attempts to use FU when none available
system.switch_cpus0.iq.fu_full::SimdShaSigma2            0      0.00%     37.77% # attempts to use FU when none available
system.switch_cpus0.iq.fu_full::SimdShaSigma3            0      0.00%     37.77% # attempts to use FU when none available
system.switch_cpus0.iq.fu_full::SimdPredAlu            0      0.00%     37.77% # attempts to use FU when none available
system.switch_cpus0.iq.fu_full::MemRead       3281225     23.99%     61.75% # attempts to use FU when none available
system.switch_cpus0.iq.fu_full::MemWrite      1162261      8.50%     70.25% # attempts to use FU when none available
system.switch_cpus0.iq.fu_full::FloatMemRead      3537569     25.86%     96.11% # attempts to use FU when none available
system.switch_cpus0.iq.fu_full::FloatMemWrite       531776      3.89%    100.00% # attempts to use FU when none available
system.switch_cpus0.iq.fu_full::IprAccess            0      0.00%    100.00% # attempts to use FU when none available
system.switch_cpus0.iq.fu_full::InstPrefetch            0      0.00%    100.00% # attempts to use FU when none available
system.switch_cpus0.iq.int_alu_accesses     390900703                       # Number of integer alu accesses
system.switch_cpus0.iq.int_inst_queue_reads    878491132                       # Number of integer instruction queue reads
system.switch_cpus0.iq.int_inst_queue_wakeup_accesses    381500307                       # Number of integer instruction queue wakeup accesses
system.switch_cpus0.iq.int_inst_queue_writes    445767393                       # Number of integer instruction queue writes
system.switch_cpus0.iq.iqInstsAdded         502317205                       # Number of instructions added to the IQ (excludes non-spec)
system.switch_cpus0.iq.iqInstsIssued        482719389                       # Number of instructions issued
system.switch_cpus0.iq.iqNonSpecInstsAdded           12                       # Number of non-speculative instructions added to the IQ
system.switch_cpus0.iq.iqSquashedInstsExamined     51827929                       # Number of squashed instructions iterated over during squash; mainly for profiling
system.switch_cpus0.iq.iqSquashedInstsIssued       707266                       # Number of squashed instructions issued
system.switch_cpus0.iq.iqSquashedNonSpecRemoved           12                       # Number of squashed non-spec instructions that were removed
system.switch_cpus0.iq.iqSquashedOperandsExamined     75179995                       # Number of squashed operands that are examined and possibly removed from graph
system.switch_cpus0.iq.issued_per_cycle::samples     99412127                       # Number of insts issued each cycle
system.switch_cpus0.iq.issued_per_cycle::mean     4.855739                       # Number of insts issued each cycle
system.switch_cpus0.iq.issued_per_cycle::stdev     2.689372                       # Number of insts issued each cycle
system.switch_cpus0.iq.issued_per_cycle::underflows            0      0.00%      0.00% # Number of insts issued each cycle
system.switch_cpus0.iq.issued_per_cycle::0     13743269     13.82%     13.82% # Number of insts issued each cycle
system.switch_cpus0.iq.issued_per_cycle::1      2719312      2.74%     16.56% # Number of insts issued each cycle
system.switch_cpus0.iq.issued_per_cycle::2      5147496      5.18%     21.74% # Number of insts issued each cycle
system.switch_cpus0.iq.issued_per_cycle::3      6695506      6.74%     28.47% # Number of insts issued each cycle
system.switch_cpus0.iq.issued_per_cycle::4      9445148      9.50%     37.97% # Number of insts issued each cycle
system.switch_cpus0.iq.issued_per_cycle::5     12235774     12.31%     50.28% # Number of insts issued each cycle
system.switch_cpus0.iq.issued_per_cycle::6     15171250     15.26%     65.54% # Number of insts issued each cycle
system.switch_cpus0.iq.issued_per_cycle::7     14403371     14.49%     80.03% # Number of insts issued each cycle
system.switch_cpus0.iq.issued_per_cycle::8     19851001     19.97%    100.00% # Number of insts issued each cycle
system.switch_cpus0.iq.issued_per_cycle::overflows            0      0.00%    100.00% # Number of insts issued each cycle
system.switch_cpus0.iq.issued_per_cycle::min_value            0                       # Number of insts issued each cycle
system.switch_cpus0.iq.issued_per_cycle::max_value            8                       # Number of insts issued each cycle
system.switch_cpus0.iq.issued_per_cycle::total     99412127                       # Number of insts issued each cycle
system.switch_cpus0.iq.rate                  4.851485                       # Inst issue rate
system.switch_cpus0.iq.vec_alu_accesses             0                       # Number of vector alu accesses
system.switch_cpus0.iq.vec_inst_queue_reads            0                       # Number of vector instruction queue reads
system.switch_cpus0.iq.vec_inst_queue_wakeup_accesses            0                       # Number of vector instruction queue wakeup accesses
system.switch_cpus0.iq.vec_inst_queue_writes            0                       # Number of vector instruction queue writes
system.switch_cpus0.memDep0.conflictingLoads      5202052                       # Number of conflicting loads.
system.switch_cpus0.memDep0.conflictingStores      2542765                       # Number of conflicting stores.
system.switch_cpus0.memDep0.insertedLoads    102975959                       # Number of loads inserted to the mem dependence unit.
system.switch_cpus0.memDep0.insertedStores     45385103                       # Number of stores inserted to the mem dependence unit.
system.switch_cpus0.misc_regfile_reads      236395787                       # number of misc regfile reads
system.switch_cpus0.misc_regfile_writes             1                       # number of misc regfile writes
system.switch_cpus0.numCycles                99499314                       # number of cpu cycles simulated
system.switch_cpus0.numWorkItemsCompleted            0                       # number of work items this cpu completed
system.switch_cpus0.numWorkItemsStarted             0                       # number of work items this cpu started
system.switch_cpus0.timesIdled                    344                       # Number of times that the entire CPU went into an idle state and unscheduled itself
system.switch_cpus1.cc_regfile_reads        204539148                       # number of cc regfile reads
system.switch_cpus1.cc_regfile_writes       100508298                       # number of cc regfile writes
system.switch_cpus1.committedInsts          249994228                       # Number of Instructions Simulated
system.switch_cpus1.committedOps            450489216                       # Number of Ops (including micro ops) Simulated
system.switch_cpus1.cpi                      0.398006                       # CPI: Cycles Per Instruction
system.switch_cpus1.cpi_total                0.398006                       # CPI: Total CPI of All Threads
system.switch_cpus1.fp_regfile_reads        146662156                       # number of floating regfile reads
system.switch_cpus1.fp_regfile_writes        84012759                       # number of floating regfile writes
system.switch_cpus1.idleCycles                  86456                       # Total number of cycles that the CPU has spent unscheduled due to idling
system.switch_cpus1.iew.branchMispredicts      1092555                       # Number of branch mispredicts detected at execute
system.switch_cpus1.iew.exec_branches        46301636                       # Number of branches executed
system.switch_cpus1.iew.exec_nop                    0                       # number of nop insts executed
system.switch_cpus1.iew.exec_rate            4.821182                       # Inst execution rate
system.switch_cpus1.iew.exec_refs           140829256                       # number of memory reference insts executed
system.switch_cpus1.iew.exec_stores          42654604                       # Number of stores executed
system.switch_cpus1.iew.exec_swp                    0                       # number of swp insts executed
system.switch_cpus1.iew.iewBlockCycles        6050215                       # Number of cycles IEW is blocking
system.switch_cpus1.iew.iewDispLoadInsts    102974569                       # Number of dispatched load instructions
system.switch_cpus1.iew.iewDispNonSpecInsts            8                       # Number of dispatched non-speculative instructions
system.switch_cpus1.iew.iewDispSquashedInsts          260                       # Number of squashed instructions skipped by dispatch
system.switch_cpus1.iew.iewDispStoreInsts     45383844                       # Number of dispatched store instructions
system.switch_cpus1.iew.iewDispatchedInsts    502308913                       # Number of instructions dispatched to IQ
system.switch_cpus1.iew.iewExecLoadInsts     98174652                       # Number of load instructions executed
system.switch_cpus1.iew.iewExecSquashedInsts      3009940                       # Number of squashed instructions skipped in execute
system.switch_cpus1.iew.iewExecutedInsts    479704294                       # Number of executed instructions
system.switch_cpus1.iew.iewIQFullEvents          9999                       # Number of times the IQ has become full, causing a stall
system.switch_cpus1.iew.iewIdleCycles               0                       # Number of cycles IEW is idle
system.switch_cpus1.iew.iewLSQFullEvents       182523                       # Number of times the LSQ has become full, causing a stall
system.switch_cpus1.iew.iewSquashCycles        993237                       # Number of cycles IEW is squashing
system.switch_cpus1.iew.iewUnblockCycles       196193                       # Number of cycles IEW is unblocking
system.switch_cpus1.iew.memOrderViolationEvents        17501                       # Number of memory order violations
system.switch_cpus1.iew.predictedNotTakenIncorrect       731637                       # Number of branches that were predicted not taken incorrectly
system.switch_cpus1.iew.predictedTakenIncorrect       360918                       # Number of branches that were predicted taken incorrectly
system.switch_cpus1.iew.wb_consumers        628026757                       # num instructions consuming a value
system.switch_cpus1.iew.wb_count            477928393                       # cumulative count of insts written-back
system.switch_cpus1.iew.wb_fanout            0.567131                       # average fanout of values written-back
system.switch_cpus1.iew.wb_producers        356173410                       # num instructions producing a value
system.switch_cpus1.iew.wb_rate              4.803334                       # insts written-back per cycle
system.switch_cpus1.iew.wb_sent             479199489                       # cumulative count of insts sent to commit
system.switch_cpus1.int_regfile_reads       664459564                       # number of integer regfile reads
system.switch_cpus1.int_regfile_writes      299454095                       # number of integer regfile writes
system.switch_cpus1.ipc                      2.512522                       # IPC: Instructions Per Cycle
system.switch_cpus1.ipc_total                2.512522                       # IPC: Total IPC of All Threads
system.switch_cpus1.iq.FU_type_0::No_OpClass      2621927      0.54%      0.54% # Type of FU issued
system.switch_cpus1.iq.FU_type_0::IntAlu    289460147     59.97%     60.51% # Type of FU issued
system.switch_cpus1.iq.FU_type_0::IntMult       962204      0.20%     60.71% # Type of FU issued
system.switch_cpus1.iq.FU_type_0::IntDiv            0      0.00%     60.71% # Type of FU issued
system.switch_cpus1.iq.FU_type_0::FloatAdd      1082741      0.22%     60.93% # Type of FU issued
system.switch_cpus1.iq.FU_type_0::FloatCmp            0      0.00%     60.93% # Type of FU issued
system.switch_cpus1.iq.FU_type_0::FloatCvt            0      0.00%     60.93% # Type of FU issued
system.switch_cpus1.iq.FU_type_0::FloatMult            0      0.00%     60.93% # Type of FU issued
system.switch_cpus1.iq.FU_type_0::FloatMultAcc            0      0.00%     60.93% # Type of FU issued
system.switch_cpus1.iq.FU_type_0::FloatDiv            0      0.00%     60.93% # Type of FU issued
system.switch_cpus1.iq.FU_type_0::FloatMisc            0      0.00%     60.93% # Type of FU issued
system.switch_cpus1.iq.FU_type_0::FloatSqrt            0      0.00%     60.93% # Type of FU issued
system.switch_cpus1.iq.FU_type_0::SimdAdd            0      0.00%     60.93% # Type of FU issued
system.switch_cpus1.iq.FU_type_0::SimdAddAcc            0      0.00%     60.93% # Type of FU issued
system.switch_cpus1.iq.FU_type_0::SimdAlu      2983042      0.62%     61.55% # Type of FU issued
system.switch_cpus1.iq.FU_type_0::SimdCmp            0      0.00%     61.55% # Type of FU issued
system.switch_cpus1.iq.FU_type_0::SimdCvt            0      0.00%     61.55% # Type of FU issued
system.switch_cpus1.iq.FU_type_0::SimdMisc        80077      0.02%     61.57% # Type of FU issued
system.switch_cpus1.iq.FU_type_0::SimdMult            0      0.00%     61.57% # Type of FU issued
system.switch_cpus1.iq.FU_type_0::SimdMultAcc            0      0.00%     61.57% # Type of FU issued
system.switch_cpus1.iq.FU_type_0::SimdShift            0      0.00%     61.57% # Type of FU issued
system.switch_cpus1.iq.FU_type_0::SimdShiftAcc            0      0.00%     61.57% # Type of FU issued
system.switch_cpus1.iq.FU_type_0::SimdDiv            0      0.00%     61.57% # Type of FU issued
system.switch_cpus1.iq.FU_type_0::SimdSqrt            0      0.00%     61.57% # Type of FU issued
system.switch_cpus1.iq.FU_type_0::SimdFloatAdd     17493146      3.62%     65.19% # Type of FU issued
system.switch_cpus1.iq.FU_type_0::SimdFloatAlu            0      0.00%     65.19% # Type of FU issued
system.switch_cpus1.iq.FU_type_0::SimdFloatCmp        61424      0.01%     65.20% # Type of FU issued
system.switch_cpus1.iq.FU_type_0::SimdFloatCvt      7580149      1.57%     66.77% # Type of FU issued
system.switch_cpus1.iq.FU_type_0::SimdFloatDiv       605483      0.13%     66.90% # Type of FU issued
system.switch_cpus1.iq.FU_type_0::SimdFloatMisc            0      0.00%     66.90% # Type of FU issued
system.switch_cpus1.iq.FU_type_0::SimdFloatMult     17349459      3.59%     70.49% # Type of FU issued
system.switch_cpus1.iq.FU_type_0::SimdFloatMultAcc            0      0.00%     70.49% # Type of FU issued
system.switch_cpus1.iq.FU_type_0::SimdFloatSqrt        38394      0.01%     70.50% # Type of FU issued
system.switch_cpus1.iq.FU_type_0::SimdReduceAdd            0      0.00%     70.50% # Type of FU issued
system.switch_cpus1.iq.FU_type_0::SimdReduceAlu            0      0.00%     70.50% # Type of FU issued
system.switch_cpus1.iq.FU_type_0::SimdReduceCmp            0      0.00%     70.50% # Type of FU issued
system.switch_cpus1.iq.FU_type_0::SimdFloatReduceAdd            0      0.00%     70.50% # Type of FU issued
system.switch_cpus1.iq.FU_type_0::SimdFloatReduceCmp            0      0.00%     70.50% # Type of FU issued
system.switch_cpus1.iq.FU_type_0::SimdAes            0      0.00%     70.50% # Type of FU issued
system.switch_cpus1.iq.FU_type_0::SimdAesMix            0      0.00%     70.50% # Type of FU issued
system.switch_cpus1.iq.FU_type_0::SimdSha1Hash            0      0.00%     70.50% # Type of FU issued
system.switch_cpus1.iq.FU_type_0::SimdSha1Hash2            0      0.00%     70.50% # Type of FU issued
[...]
system.switch_cpus3.commit.numCommittedDist::2      5083550      5.50%     30.61% # Number of insts commited each cycle
system.switch_cpus3.commit.numCommittedDist::3     10115972     10.94%     41.55% # Number of insts commited each cycle
system.switch_cpus3.commit.numCommittedDist::4      3178642      3.44%     44.98% # Number of insts commited each cycle
system.switch_cpus3.commit.numCommittedDist::5      2226827      2.41%     47.39% # Number of insts commited each cycle
system.switch_cpus3.commit.numCommittedDist::6      3400127      3.68%     51.07% # Number of insts commited each cycle
system.switch_cpus3.commit.numCommittedDist::7      3500460      3.79%     54.85% # Number of insts commited each cycle
system.switch_cpus3.commit.numCommittedDist::8     41748810     45.15%    100.00% # Number of insts commited each cycle
system.switch_cpus3.commit.numCommittedDist::overflows            0      0.00%    100.00% # Number of insts commited each cycle
system.switch_cpus3.commit.numCommittedDist::min_value            0                       # Number of insts commited each cycle
system.switch_cpus3.commit.numCommittedDist::max_value            8                       # Number of insts commited each cycle
system.switch_cpus3.commit.numCommittedDist::total     92473502                       # Number of insts commited each cycle
system.switch_cpus3.commit.instsCommitted    250000001                       # Number of instructions committed
system.switch_cpus3.commit.opsCommitted     450499466                       # Number of ops (including micro ops) committed
system.switch_cpus3.commit.memRefs          132213732                       # Number of memory references committed
system.switch_cpus3.commit.loads             91796583                       # Number of loads committed
system.switch_cpus3.commit.amos                     0                       # Number of atomic instructions committed
system.switch_cpus3.commit.membars                  0                       # Number of memory barriers committed
system.switch_cpus3.commit.branches          44284663                       # Number of branches committed
system.switch_cpus3.commit.vector                   0                       # Number of committed Vector instructions.
system.switch_cpus3.commit.floating          93661082                       # Number of committed floating point instructions.
system.switch_cpus3.commit.integer          395884488                       # Number of committed integer instructions.
system.switch_cpus3.commit.functionCalls      6935287                       # Number of function calls committed.
system.switch_cpus3.commit.committedInstType_0::No_OpClass      2418328      0.54%      0.54% # Class of committed instruction
system.switch_cpus3.commit.committedInstType_0::IntAlu    268729979     59.65%     60.19% # Class of committed instruction
system.switch_cpus3.commit.committedInstType_0::IntMult       953158      0.21%     60.40% # Class of committed instruction
system.switch_cpus3.commit.committedInstType_0::IntDiv            0      0.00%     60.40% # Class of committed instruction
system.switch_cpus3.commit.committedInstType_0::FloatAdd      1017886      0.23%     60.63% # Class of committed instruction
system.switch_cpus3.commit.committedInstType_0::FloatCmp            0      0.00%     60.63% # Class of committed instruction
system.switch_cpus3.commit.committedInstType_0::FloatCvt            0      0.00%     60.63% # Class of committed instruction
system.switch_cpus3.commit.committedInstType_0::FloatMult            0      0.00%     60.63% # Class of committed instruction
system.switch_cpus3.commit.committedInstType_0::FloatMultAcc            0      0.00%     60.63% # Class of committed instruction
system.switch_cpus3.commit.committedInstType_0::FloatDiv            0      0.00%     60.63% # Class of committed instruction
system.switch_cpus3.commit.committedInstType_0::FloatMisc            0      0.00%     60.63% # Class of committed instruction
system.switch_cpus3.commit.committedInstType_0::FloatSqrt            0      0.00%     60.63% # Class of committed instruction
system.switch_cpus3.commit.committedInstType_0::SimdAdd            0      0.00%     60.63% # Class of committed instruction
system.switch_cpus3.commit.committedInstType_0::SimdAddAcc            0      0.00%     60.63% # Class of committed instruction
system.switch_cpus3.commit.committedInstType_0::SimdAlu      2922550      0.65%     61.27% # Class of committed instruction
system.switch_cpus3.commit.committedInstType_0::SimdCmp            0      0.00%     61.27% # Class of committed instruction
system.switch_cpus3.commit.committedInstType_0::SimdCvt            0      0.00%     61.27% # Class of committed instruction
system.switch_cpus3.commit.committedInstType_0::SimdMisc        80071      0.02%     61.29% # Class of committed instruction
system.switch_cpus3.commit.committedInstType_0::SimdMult            0      0.00%     61.29% # Class of committed instruction
system.switch_cpus3.commit.committedInstType_0::SimdMultAcc            0      0.00%     61.29% # Class of committed instruction
system.switch_cpus3.commit.committedInstType_0::SimdShift            0      0.00%     61.29% # Class of committed instruction
system.switch_cpus3.commit.committedInstType_0::SimdShiftAcc            0      0.00%     61.29% # Class of committed instruction
system.switch_cpus3.commit.committedInstType_0::SimdDiv            0      0.00%     61.29% # Class of committed instruction
system.switch_cpus3.commit.committedInstType_0::SimdSqrt            0      0.00%     61.29% # Class of committed instruction
system.switch_cpus3.commit.committedInstType_0::SimdFloatAdd     17150630      3.81%     65.10% # Class of committed instruction
system.switch_cpus3.commit.committedInstType_0::SimdFloatAlu            0      0.00%     65.10% # Class of committed instruction
system.switch_cpus3.commit.committedInstType_0::SimdFloatCmp        61424      0.01%     65.11% # Class of committed instruction
system.switch_cpus3.commit.committedInstType_0::SimdFloatCvt      7400239      1.64%     66.76% # Class of committed instruction
system.switch_cpus3.commit.committedInstType_0::SimdFloatDiv       592165      0.13%     66.89% # Class of committed instruction
system.switch_cpus3.commit.committedInstType_0::SimdFloatMisc            0      0.00%     66.89% # Class of committed instruction
system.switch_cpus3.commit.committedInstType_0::SimdFloatMult     16927571      3.76%     70.64% # Class of committed instruction
system.switch_cpus3.commit.committedInstType_0::SimdFloatMultAcc            0      0.00%     70.64% # Class of committed instruction
system.switch_cpus3.commit.committedInstType_0::SimdFloatSqrt        31733      0.01%     70.65% # Class of committed instruction
system.switch_cpus3.commit.committedInstType_0::SimdReduceAdd            0      0.00%     70.65% # Class of committed instruction
system.switch_cpus3.commit.committedInstType_0::SimdReduceAlu            0      0.00%     70.65% # Class of committed instruction
system.switch_cpus3.commit.committedInstType_0::SimdReduceCmp            0      0.00%     70.65% # Class of committed instruction
system.switch_cpus3.commit.committedInstType_0::SimdFloatReduceAdd            0      0.00%     70.65% # Class of committed instruction
system.switch_cpus3.commit.committedInstType_0::SimdFloatReduceCmp            0      0.00%     70.65% # Class of committed instruction
system.switch_cpus3.commit.committedInstType_0::SimdAes            0      0.00%     70.65% # Class of committed instruction
system.switch_cpus3.commit.committedInstType_0::SimdAesMix            0      0.00%     70.65% # Class of committed instruction
system.switch_cpus3.commit.committedInstType_0::SimdSha1Hash            0      0.00%     70.65% # Class of committed instruction
system.switch_cpus3.commit.committedInstType_0::SimdSha1Hash2            0      0.00%     70.65% # Class of committed instruction
system.switch_cpus3.commit.committedInstType_0::SimdSha256Hash            0      0.00%     70.65% # Class of committed instruction
system.switch_cpus3.commit.committedInstType_0::SimdSha256Hash2            0      0.00%     70.65% # Class of committed instruction
system.switch_cpus3.commit.committedInstType_0::SimdShaSigma2            0      0.00%     70.65% # Class of committed instruction
system.switch_cpus3.commit.committedInstType_0::SimdShaSigma3            0      0.00%     70.65% # Class of committed instruction
system.switch_cpus3.commit.committedInstType_0::SimdPredAlu            0      0.00%     70.65% # Class of committed instruction
system.switch_cpus3.commit.committedInstType_0::MemRead     56694745     12.58%     83.24% # Class of committed instruction
system.switch_cpus3.commit.committedInstType_0::MemWrite     34125851      7.58%     90.81% # Class of committed instruction
system.switch_cpus3.commit.committedInstType_0::FloatMemRead     35101838      7.79%     98.60% # Class of committed instruction
system.switch_cpus3.commit.committedInstType_0::FloatMemWrite      6291298      1.40%    100.00% # Class of committed instruction
system.switch_cpus3.commit.committedInstType_0::IprAccess            0      0.00%    100.00% # Class of committed instruction
system.switch_cpus3.commit.committedInstType_0::InstPrefetch            0      0.00%    100.00% # Class of committed instruction
system.switch_cpus3.commit.committedInstType_0::total    450499466                       # Class of committed instruction
system.switch_cpus3.commit.commitEligibleSamples     41748810                       # number cycles where commit BW limit reached
system.switch_cpus3.decode.idleCycles         5913057                       # Number of cycles decode is idle
system.switch_cpus3.decode.blockedCycles     15056377                       # Number of cycles decode is blocked
system.switch_cpus3.decode.runCycles         71365407                       # Number of cycles decode is running
system.switch_cpus3.decode.unblockCycles      6084946                       # Number of cycles decode is unblocking
system.switch_cpus3.decode.squashCycles        993406                       # Number of cycles decode is squashing
system.switch_cpus3.decode.branchResolved     21313689                       # Number of times decode resolved a  branch
system.switch_cpus3.decode.branchMispred        70948                       # Number of times decode detected a branch misprediction
system.switch_cpus3.decode.decodedInsts     520801048                       # Number of instructions handled by decode
system.switch_cpus3.decode.squashedInsts       431026                       # Number of squashed instructions handled by decode
system.switch_cpus3.dtb.rdAccesses           98388028                       # TLB accesses on read requests
system.switch_cpus3.dtb.wrAccesses           42656104                       # TLB accesses on write requests
system.switch_cpus3.dtb.rdMisses               667769                       # TLB misses on read requests
system.switch_cpus3.dtb.wrMisses               108436                       # TLB misses on write requests
system.switch_cpus3.dtb.walker.power_state.pwrStateResidencyTicks::UNDEFINED 17928138844071                       # Cumulative time (in ticks) in various power states
system.switch_cpus3.fetch.icacheStallCycles       975139                       # Number of cycles fetch is stalled on an Icache miss
system.switch_cpus3.fetch.insts             294852307                       # Number of instructions fetch has processed
system.switch_cpus3.fetch.branches           52469416                       # Number of branches that fetch encountered
system.switch_cpus3.fetch.predictedBranches     32890729                       # Number of branches that fetch has predicted taken
system.switch_cpus3.fetch.cycles             97373989                       # Number of cycles fetch has run and was not squashing or blocked
system.switch_cpus3.fetch.squashCycles        2127678                       # Number of cycles fetch has spent squashing
system.switch_cpus3.fetch.miscStallCycles           25                       # Number of cycles fetch has spent waiting on interrupts,or bad addresses, or out of MSHRs
system.switch_cpus3.fetch.pendingTrapStallCycles          160                       # Number of stall cycles due to pending traps
system.switch_cpus3.fetch.pendingQuiesceStallCycles           47                       # Number of stall cycles due to pending quiesce instructions
system.switch_cpus3.fetch.cacheLines         45451942                       # Number of cache lines fetched
system.switch_cpus3.fetch.icacheSquashes          349                       # Number of outstanding Icache misses that were squashed
system.switch_cpus3.fetch.nisnDist::samples     99413199                       # Number of instructions fetched each cycle (Total)
system.switch_cpus3.fetch.nisnDist::mean     5.365993                       # Number of instructions fetched each cycle (Total)
system.switch_cpus3.fetch.nisnDist::stdev     2.940583                       # Number of instructions fetched each cycle (Total)
system.switch_cpus3.fetch.nisnDist::underflows            0      0.00%      0.00% # Number of instructions fetched each cycle (Total)
system.switch_cpus3.fetch.nisnDist::0        11500659     11.57%     11.57% # Number of instructions fetched each cycle (Total)
system.switch_cpus3.fetch.nisnDist::1         4185420      4.21%     15.78% # Number of instructions fetched each cycle (Total)
system.switch_cpus3.fetch.nisnDist::2         6650724      6.69%     22.47% # Number of instructions fetched each cycle (Total)
system.switch_cpus3.fetch.nisnDist::3         4383060      4.41%     26.88% # Number of instructions fetched each cycle (Total)
system.switch_cpus3.fetch.nisnDist::4        11994775     12.07%     38.94% # Number of instructions fetched each cycle (Total)
system.switch_cpus3.fetch.nisnDist::5         3252856      3.27%     42.22% # Number of instructions fetched each cycle (Total)
system.switch_cpus3.fetch.nisnDist::6         8519915      8.57%     50.79% # Number of instructions fetched each cycle (Total)
system.switch_cpus3.fetch.nisnDist::7         3954738      3.98%     54.76% # Number of instructions fetched each cycle (Total)
system.switch_cpus3.fetch.nisnDist::8        44971052     45.24%    100.00% # Number of instructions fetched each cycle (Total)
system.switch_cpus3.fetch.nisnDist::overflows            0      0.00%    100.00% # Number of instructions fetched each cycle (Total)
system.switch_cpus3.fetch.nisnDist::min_value            0                       # Number of instructions fetched each cycle (Total)
system.switch_cpus3.fetch.nisnDist::max_value            8                       # Number of instructions fetched each cycle (Total)
system.switch_cpus3.fetch.nisnDist::total     99413199                       # Number of instructions fetched each cycle (Total)
system.switch_cpus3.fetch.branchRate         0.527334                       # Number of branch fetches per cycle
system.switch_cpus3.fetch.rate               2.963360                       # Number of inst fetches per cycle
system.switch_cpus3.itb.rdAccesses                  0                       # TLB accesses on read requests
system.switch_cpus3.itb.wrAccesses           45451968                       # TLB accesses on write requests
system.switch_cpus3.itb.rdMisses                    0                       # TLB misses on read requests
system.switch_cpus3.itb.wrMisses                   87                       # TLB misses on write requests
system.switch_cpus3.itb.walker.power_state.pwrStateResidencyTicks::UNDEFINED 17928138844071                       # Cumulative time (in ticks) in various power states
system.switch_cpus3.lsq0.forwLoads           18298879                       # Number of loads that had data forwarded from stores
system.switch_cpus3.lsq0.squashedLoads       11160057                       # Number of loads squashed
system.switch_cpus3.lsq0.ignoredResponses         8677                       # Number of memory responses ignored because the instruction is squashed
system.switch_cpus3.lsq0.memOrderViolation        17507                       # Number of memory ordering violations
system.switch_cpus3.lsq0.squashedStores       4983174                       # Number of stores squashed
system.switch_cpus3.lsq0.rescheduledLoads        60160                       # Number of loads that were rescheduled
system.switch_cpus3.lsq0.blockedByCache             0                       # Number of times an access to memory failed due to the cache being blocked
system.switch_cpus3.power_state.pwrStateResidencyTicks::OFF  33133281885                       # Cumulative time (in ticks) in various power states
system.switch_cpus3.rename.squashCycles        993406                       # Number of cycles rename is squashing
system.switch_cpus3.rename.idleCycles         8893874                       # Number of cycles rename is idle
system.switch_cpus3.rename.blockCycles        6440617                       # Number of cycles rename is blocking
system.switch_cpus3.rename.serializeStallCycles         1338                       # count of cycles rename stalledfor serializing inst
system.switch_cpus3.rename.runCycles         74367487                       # Number of cycles rename is running
system.switch_cpus3.rename.unblockCycles      8716471                       # Number of cycles rename is unblocking
system.switch_cpus3.rename.renamedInsts     514590430                       # Number of instructions processed by rename
system.switch_cpus3.rename.ROBFullEvents        41243                       # Number of times rename has blocked due to ROB full
system.switch_cpus3.rename.IQFullEvents       2378412                       # Number of times rename has blocked due to IQ full
system.switch_cpus3.rename.LQFullEvents       1798737                       # Number of times rename has blocked due to LQ full
system.switch_cpus3.rename.SQFullEvents       3023302                       # Number of times rename has blocked due to SQ full
system.switch_cpus3.rename.renamedOperands    520570901                       # Number of destination operands rename has renamed
system.switch_cpus3.rename.lookups         1355594964                       # Number of register rename lookups that rename has made
system.switch_cpus3.rename.intLookups       720015713                       # Number of integer rename lookups
system.switch_cpus3.rename.fpLookups        157124303                       # Number of floating rename lookups
system.switch_cpus3.rename.committedMaps    455227904                       # Number of HB maps that are committed
system.switch_cpus3.rename.undoneMaps        65342900                       # Number of HB maps that are undone due to squashing
system.switch_cpus3.rename.serializing              3                       # count of serializing insts renamed
system.switch_cpus3.rename.tempSerializing            3                       # count of temporary serializing insts renamed
system.switch_cpus3.rename.skidInsts         23187477                       # count of insts added to the skid buffer
system.switch_cpus3.rob.reads               552990618                       # The number of ROB reads
system.switch_cpus3.rob.writes             1011481324                       # The number of ROB writes
system.switch_cpus3.thread0.numInsts        250000001                       # Number of Instructions committed
system.switch_cpus3.thread0.numOps          450499466                       # Number of Ops committed
system.switch_cpus3.thread0.numMemRefs              0                       # Number of Memory References
system.voltage_domain.voltage                       1                       # Voltage in Volts

---------- End Simulation Statistics   ----------
