
---------- Begin Simulation Statistics ----------
final_tick                               14083301400201                       # Number of ticks from beginning of simulation (restored from checkpoints and never reset)
host_inst_rate                                  69384                       # Simulator instruction rate (inst/s)
host_mem_usage                               17296284                       # Number of bytes of host memory used
host_op_rate                                    76371                       # Simulator op (including micro ops) rate (op/s)
host_seconds                                 14409.12                       # Real time elapsed on the host
host_tick_rate                               25279054                       # Simulator tick rate (ticks/s)
sim_freq                                 1000000000000                       # Frequency of simulated ticks
sim_insts                                   999764187                       # Number of instructions simulated
sim_ops                                    1100442766                       # Number of ops (including micro ops) simulated
sim_seconds                                  0.364249                       # Number of seconds simulated
sim_ticks                                364248804915                       # Number of ticks simulated
system.cpu0.committedInsts                         19                       # Number of instructions committed
system.cpu0.committedOps                           20                       # Number of ops (including micro ops) committed
system.cpu0.idle_fraction                           0                       # Percentage of idle cycles
system.cpu0.l2bus.snoop_filter.hit_multi_requests            0                       # Number of requests hitting in the snoop filter with multiple (>1) holders of the requested data.
system.cpu0.l2bus.snoop_filter.hit_multi_snoops            0                       # Number of snoops hitting in the snoop filter with multiple (>1) holders of the requested data.
system.cpu0.l2bus.snoop_filter.hit_single_requests     12658273                       # Number of requests hitting in the snoop filter with a single holder of the requested data.
system.cpu0.l2bus.snoop_filter.hit_single_snoops      4661953                       # Number of snoops hitting in the snoop filter with a single holder of the requested data.
system.cpu0.l2bus.snoop_filter.tot_requests     21966351                       # Total number of requests made to the snoop filter.
system.cpu0.l2bus.snoop_filter.tot_snoops      4661953                       # Total number of snoops made to the snoop filter.
system.cpu0.mmucache.mmubus.snoop_filter.hit_multi_requests            0                       # Number of requests hitting in the snoop filter with multiple (>1) holders of the requested data.
system.cpu0.mmucache.mmubus.snoop_filter.hit_multi_snoops            0                       # Number of snoops hitting in the snoop filter with multiple (>1) holders of the requested data.
system.cpu0.mmucache.mmubus.snoop_filter.hit_single_requests            0                       # Number of requests hitting in the snoop filter with a single holder of the requested data.
system.cpu0.mmucache.mmubus.snoop_filter.hit_single_snoops            0                       # Number of snoops hitting in the snoop filter with a single holder of the requested data.
system.cpu0.mmucache.mmubus.snoop_filter.tot_requests            0                       # Total number of requests made to the snoop filter.
system.cpu0.mmucache.mmubus.snoop_filter.tot_snoops            0                       # Total number of snoops made to the snoop filter.
system.cpu0.not_idle_fraction                       1                       # Percentage of non-idle cycles
system.cpu0.numCycles                              30                       # number of cpu cycles simulated
system.cpu0.numWorkItemsCompleted                   0                       # number of work items this cpu completed
system.cpu0.numWorkItemsStarted                     0                       # number of work items this cpu started
system.cpu0.num_busy_cycles                        30                       # Number of busy cycles
system.cpu0.num_conditional_control_insts            0                       # number of instructions that are conditional controls
system.cpu0.num_fp_alu_accesses                    20                       # Number of float alu accesses
system.cpu0.num_fp_insts                           20                       # number of float instructions
system.cpu0.num_fp_register_reads                  36                       # number of times the floating registers were read
system.cpu0.num_fp_register_writes                 19                       # number of times the floating registers were written
system.cpu0.num_func_calls                          0                       # number of times a function call or return occured
system.cpu0.num_idle_cycles                         0                       # Number of idle cycles
system.cpu0.num_int_alu_accesses                    8                       # Number of integer alu accesses
system.cpu0.num_int_insts                           8                       # number of integer instructions
system.cpu0.num_int_register_reads                 24                       # number of times the integer registers were read
system.cpu0.num_int_register_writes                 0                       # number of times the integer registers were written
system.cpu0.num_load_insts                          7                       # Number of load instructions
system.cpu0.num_mem_refs                            8                       # number of memory refs
system.cpu0.num_store_insts                         1                       # Number of store instructions
system.cpu0.num_vec_alu_accesses                    0                       # Number of vector alu accesses
system.cpu0.num_vec_insts                           0                       # number of vector instructions
system.cpu0.num_vec_register_reads                  0                       # number of times the vector registers were read
system.cpu0.num_vec_register_writes                 0                       # number of times the vector registers were written
system.cpu0.op_class::No_OpClass                    0      0.00%      0.00% # Class of executed instruction
system.cpu0.op_class::IntAlu                        1      5.00%      5.00% # Class of executed instruction
system.cpu0.op_class::IntMult                       0      0.00%      5.00% # Class of executed instruction
system.cpu0.op_class::IntDiv                        0      0.00%      5.00% # Class of executed instruction
system.cpu0.op_class::FloatAdd                      0      0.00%      5.00% # Class of executed instruction
system.cpu0.op_class::FloatCmp                      0      0.00%      5.00% # Class of executed instruction
system.cpu0.op_class::FloatCvt                      0      0.00%      5.00% # Class of executed instruction
system.cpu0.op_class::FloatMult                     0      0.00%      5.00% # Class of executed instruction
system.cpu0.op_class::FloatMultAcc                  0      0.00%      5.00% # Class of executed instruction
system.cpu0.op_class::FloatDiv                      0      0.00%      5.00% # Class of executed instruction
system.cpu0.op_class::FloatMisc                     0      0.00%      5.00% # Class of executed instruction
system.cpu0.op_class::FloatSqrt                     0      0.00%      5.00% # Class of executed instruction
system.cpu0.op_class::SimdAdd                       0      0.00%      5.00% # Class of executed instruction
system.cpu0.op_class::SimdAddAcc                    0      0.00%      5.00% # Class of executed instruction
system.cpu0.op_class::SimdAlu                       0      0.00%      5.00% # Class of executed instruction
system.cpu0.op_class::SimdCmp                       0      0.00%      5.00% # Class of executed instruction
system.cpu0.op_class::SimdCvt                       0      0.00%      5.00% # Class of executed instruction
system.cpu0.op_class::SimdMisc                      0      0.00%      5.00% # Class of executed instruction
system.cpu0.op_class::SimdMult                      0      0.00%      5.00% # Class of executed instruction
system.cpu0.op_class::SimdMultAcc                   0      0.00%      5.00% # Class of executed instruction
system.cpu0.op_class::SimdShift                     0      0.00%      5.00% # Class of executed instruction
system.cpu0.op_class::SimdShiftAcc                  0      0.00%      5.00% # Class of executed instruction
system.cpu0.op_class::SimdDiv                       0      0.00%      5.00% # Class of executed instruction
system.cpu0.op_class::SimdSqrt                      0      0.00%      5.00% # Class of executed instruction
system.cpu0.op_class::SimdFloatAdd                  5     25.00%     30.00% # Class of executed instruction
system.cpu0.op_class::SimdFloatAlu                  0      0.00%     30.00% # Class of executed instruction
system.cpu0.op_class::SimdFloatCmp                  0      0.00%     30.00% # Class of executed instruction
system.cpu0.op_class::SimdFloatCvt                  0      0.00%     30.00% # Class of executed instruction
system.cpu0.op_class::SimdFloatDiv                  0      0.00%     30.00% # Class of executed instruction
system.cpu0.op_class::SimdFloatMisc                 0      0.00%     30.00% # Class of executed instruction
system.cpu0.op_class::SimdFloatMult                 6     30.00%     60.00% # Class of executed instruction
system.cpu0.op_class::SimdFloatMultAcc              0      0.00%     60.00% # Class of executed instruction
system.cpu0.op_class::SimdFloatSqrt                 0      0.00%     60.00% # Class of executed instruction
system.cpu0.op_class::SimdReduceAdd                 0      0.00%     60.00% # Class of executed instruction
system.cpu0.op_class::SimdReduceAlu                 0      0.00%     60.00% # Class of executed instruction
system.cpu0.op_class::SimdReduceCmp                 0      0.00%     60.00% # Class of executed instruction
system.cpu0.op_class::SimdFloatReduceAdd            0      0.00%     60.00% # Class of executed instruction
system.cpu0.op_class::SimdFloatReduceCmp            0      0.00%     60.00% # Class of executed instruction
system.cpu0.op_class::SimdAes                       0      0.00%     60.00% # Class of executed instruction
system.cpu0.op_class::SimdAesMix                    0      0.00%     60.00% # Class of executed instruction
system.cpu0.op_class::SimdSha1Hash                  0      0.00%     60.00% # Class of executed instruction
system.cpu0.op_class::SimdSha1Hash2                 0      0.00%     60.00% # Class of executed instruction
system.cpu0.op_class::SimdSha256Hash                0      0.00%     60.00% # Class of executed instruction
system.cpu0.op_class::SimdSha256Hash2               0      0.00%     60.00% # Class of executed instruction
system.cpu0.op_class::SimdShaSigma2                 0      0.00%     60.00% # Class of executed instruction
system.cpu0.op_class::SimdShaSigma3                 0      0.00%     60.00% # Class of executed instruction
system.cpu0.op_class::SimdPredAlu                   0      0.00%     60.00% # Class of executed instruction
system.cpu0.op_class::MemRead                       0      0.00%     60.00% # Class of executed instruction
system.cpu0.op_class::MemWrite                      0      0.00%     60.00% # Class of executed instruction
system.cpu0.op_class::FloatMemRead                  7     35.00%     95.00% # Class of executed instruction
system.cpu0.op_class::FloatMemWrite                 1      5.00%    100.00% # Class of executed instruction
system.cpu0.op_class::IprAccess                     0      0.00%    100.00% # Class of executed instruction
system.cpu0.op_class::InstPrefetch                  0      0.00%    100.00% # Class of executed instruction
system.cpu0.op_class::total                        20                       # Class of executed instruction
system.cpu0.workload.numSyscalls                    0                       # Number of system calls
system.cpu1.committedInsts                         19                       # Number of instructions committed
system.cpu1.committedOps                           20                       # Number of ops (including micro ops) committed
system.cpu1.idle_fraction                           0                       # Percentage of idle cycles
system.cpu1.l2bus.snoop_filter.hit_multi_requests            0                       # Number of requests hitting in the snoop filter with multiple (>1) holders of the requested data.
system.cpu1.l2bus.snoop_filter.hit_multi_snoops            0                       # Number of snoops hitting in the snoop filter with multiple (>1) holders of the requested data.
system.cpu1.l2bus.snoop_filter.hit_single_requests     12658047                       # Number of requests hitting in the snoop filter with a single holder of the requested data.
system.cpu1.l2bus.snoop_filter.hit_single_snoops      4657300                       # Number of snoops hitting in the snoop filter with a single holder of the requested data.
system.cpu1.l2bus.snoop_filter.tot_requests     21966244                       # Total number of requests made to the snoop filter.
system.cpu1.l2bus.snoop_filter.tot_snoops      4657300                       # Total number of snoops made to the snoop filter.
system.cpu1.mmucache.mmubus.snoop_filter.hit_multi_requests            0                       # Number of requests hitting in the snoop filter with multiple (>1) holders of the requested data.
system.cpu1.mmucache.mmubus.snoop_filter.hit_multi_snoops            0                       # Number of snoops hitting in the snoop filter with multiple (>1) holders of the requested data.
system.cpu1.mmucache.mmubus.snoop_filter.hit_single_requests            0                       # Number of requests hitting in the snoop filter with a single holder of the requested data.
system.cpu1.mmucache.mmubus.snoop_filter.hit_single_snoops            0                       # Number of snoops hitting in the snoop filter with a single holder of the requested data.
system.cpu1.mmucache.mmubus.snoop_filter.tot_requests            0                       # Total number of requests made to the snoop filter.
system.cpu1.mmucache.mmubus.snoop_filter.tot_snoops            0                       # Total number of snoops made to the snoop filter.
system.cpu1.not_idle_fraction                       1                       # Percentage of non-idle cycles
system.cpu1.numCycles                              30                       # number of cpu cycles simulated
system.cpu1.numWorkItemsCompleted                   0                       # number of work items this cpu completed
system.cpu1.numWorkItemsStarted                     0                       # number of work items this cpu started
system.cpu1.num_busy_cycles                        30                       # Number of busy cycles
system.cpu1.num_conditional_control_insts            0                       # number of instructions that are conditional controls
system.cpu1.num_fp_alu_accesses                    20                       # Number of float alu accesses
system.cpu1.num_fp_insts                           20                       # number of float instructions
system.cpu1.num_fp_register_reads                  36                       # number of times the floating registers were read
system.cpu1.num_fp_register_writes                 19                       # number of times the floating registers were written
system.cpu1.num_func_calls                          0                       # number of times a function call or return occured
system.cpu1.num_idle_cycles                         0                       # Number of idle cycles
system.cpu1.num_int_alu_accesses                    8                       # Number of integer alu accesses
system.cpu1.num_int_insts                           8                       # number of integer instructions
system.cpu1.num_int_register_reads                 24                       # number of times the integer registers were read
system.cpu1.num_int_register_writes                 0                       # number of times the integer registers were written
system.cpu1.num_load_insts                          7                       # Number of load instructions
system.cpu1.num_mem_refs                            8                       # number of memory refs
system.cpu1.num_store_insts                         1                       # Number of store instructions
system.cpu1.num_vec_alu_accesses                    0                       # Number of vector alu accesses
system.cpu1.num_vec_insts                           0                       # number of vector instructions
system.cpu1.num_vec_register_reads                  0                       # number of times the vector registers were read
system.cpu1.num_vec_register_writes                 0                       # number of times the vector registers were written
system.cpu1.op_class::No_OpClass                    0      0.00%      0.00% # Class of executed instruction
system.cpu1.op_class::IntAlu                        1      5.00%      5.00% # Class of executed instruction
system.cpu1.op_class::IntMult                       0      0.00%      5.00% # Class of executed instruction
system.cpu1.op_class::IntDiv                        0      0.00%      5.00% # Class of executed instruction
system.cpu1.op_class::FloatAdd                      0      0.00%      5.00% # Class of executed instruction
system.cpu1.op_class::FloatCmp                      0      0.00%      5.00% # Class of executed instruction
system.cpu1.op_class::FloatCvt                      0      0.00%      5.00% # Class of executed instruction
system.cpu1.op_class::FloatMult                     0      0.00%      5.00% # Class of executed instruction
system.cpu1.op_class::FloatMultAcc                  0      0.00%      5.00% # Class of executed instruction
system.cpu1.op_class::FloatDiv                      0      0.00%      5.00% # Class of executed instruction
system.cpu1.op_class::FloatMisc                     0      0.00%      5.00% # Class of executed instruction
system.cpu1.op_class::FloatSqrt                     0      0.00%      5.00% # Class of executed instruction
system.cpu1.op_class::SimdAdd                       0      0.00%      5.00% # Class of executed instruction
system.cpu1.op_class::SimdAddAcc                    0      0.00%      5.00% # Class of executed instruction
system.cpu1.op_class::SimdAlu                       0      0.00%      5.00% # Class of executed instruction
system.cpu1.op_class::SimdCmp                       0      0.00%      5.00% # Class of executed instruction
system.cpu1.op_class::SimdCvt                       0      0.00%      5.00% # Class of executed instruction
system.cpu1.op_class::SimdMisc                      0      0.00%      5.00% # Class of executed instruction
system.cpu1.op_class::SimdMult                      0      0.00%      5.00% # Class of executed instruction
system.cpu1.op_class::SimdMultAcc                   0      0.00%      5.00% # Class of executed instruction
system.cpu1.op_class::SimdShift                     0      0.00%      5.00% # Class of executed instruction
system.cpu1.op_class::SimdShiftAcc                  0      0.00%      5.00% # Class of executed instruction
system.cpu1.op_class::SimdDiv                       0      0.00%      5.00% # Class of executed instruction
system.cpu1.op_class::SimdSqrt                      0      0.00%      5.00% # Class of executed instruction
system.cpu1.op_class::SimdFloatAdd                  5     25.00%     30.00% # Class of executed instruction
system.cpu1.op_class::SimdFloatAlu                  0      0.00%     30.00% # Class of executed instruction
system.cpu1.op_class::SimdFloatCmp                  0      0.00%     30.00% # Class of executed instruction
system.cpu1.op_class::SimdFloatCvt                  0      0.00%     30.00% # Class of executed instruction
system.cpu1.op_class::SimdFloatDiv                  0      0.00%     30.00% # Class of executed instruction
system.cpu1.op_class::SimdFloatMisc                 0      0.00%     30.00% # Class of executed instruction
system.cpu1.op_class::SimdFloatMult                 6     30.00%     60.00% # Class of executed instruction
system.cpu1.op_class::SimdFloatMultAcc              0      0.00%     60.00% # Class of executed instruction
system.cpu1.op_class::SimdFloatSqrt                 0      0.00%     60.00% # Class of executed instruction
system.cpu1.op_class::SimdReduceAdd                 0      0.00%     60.00% # Class of executed instruction
system.cpu1.op_class::SimdReduceAlu                 0      0.00%     60.00% # Class of executed instruction
system.cpu1.op_class::SimdReduceCmp                 0      0.00%     60.00% # Class of executed instruction
system.cpu1.op_class::SimdFloatReduceAdd            0      0.00%     60.00% # Class of executed instruction
system.cpu1.op_class::SimdFloatReduceCmp            0      0.00%     60.00% # Class of executed instruction
system.cpu1.op_class::SimdAes                       0      0.00%     60.00% # Class of executed instruction
system.cpu1.op_class::SimdAesMix                    0      0.00%     60.00% # Class of executed instruction
system.cpu1.op_class::SimdSha1Hash                  0      0.00%     60.00% # Class of executed instruction
system.cpu1.op_class::SimdSha1Hash2                 0      0.00%     60.00% # Class of executed instruction
system.cpu1.op_class::SimdSha256Hash                0      0.00%     60.00% # Class of executed instruction
system.cpu1.op_class::SimdSha256Hash2               0      0.00%     60.00% # Class of executed instruction
system.cpu1.op_class::SimdShaSigma2                 0      0.00%     60.00% # Class of executed instruction
system.cpu1.op_class::SimdShaSigma3                 0      0.00%     60.00% # Class of executed instruction
system.cpu1.op_class::SimdPredAlu                   0      0.00%     60.00% # Class of executed instruction
system.cpu1.op_class::MemRead                       0      0.00%     60.00% # Class of executed instruction
system.cpu1.op_class::MemWrite                      0      0.00%     60.00% # Class of executed instruction
system.cpu1.op_class::FloatMemRead                  7     35.00%     95.00% # Class of executed instruction
system.cpu1.op_class::FloatMemWrite                 1      5.00%    100.00% # Class of executed instruction
system.cpu1.op_class::IprAccess                     0      0.00%    100.00% # Class of executed instruction
system.cpu1.op_class::InstPrefetch                  0      0.00%    100.00% # Class of executed instruction
system.cpu1.op_class::total                        20                       # Class of executed instruction
system.cpu1.workload.numSyscalls                    0                       # Number of system calls
system.cpu2.committedInsts                         19                       # Number of instructions committed
system.cpu2.committedOps                           20                       # Number of ops (including micro ops) committed
system.cpu2.idle_fraction                           0                       # Percentage of idle cycles
system.cpu2.l2bus.snoop_filter.hit_multi_requests            0                       # Number of requests hitting in the snoop filter with multiple (>1) holders of the requested data.
system.cpu2.l2bus.snoop_filter.hit_multi_snoops            0                       # Number of snoops hitting in the snoop filter with multiple (>1) holders of the requested data.
system.cpu2.l2bus.snoop_filter.hit_single_requests     12663698                       # Number of requests hitting in the snoop filter with a single holder of the requested data.
system.cpu2.l2bus.snoop_filter.hit_single_snoops      4662889                       # Number of snoops hitting in the snoop filter with a single holder of the requested data.
system.cpu2.l2bus.snoop_filter.tot_requests     21975860                       # Total number of requests made to the snoop filter.
system.cpu2.l2bus.snoop_filter.tot_snoops      4662889                       # Total number of snoops made to the snoop filter.
system.cpu2.mmucache.mmubus.snoop_filter.hit_multi_requests            0                       # Number of requests hitting in the snoop filter with multiple (>1) holders of the requested data.
system.cpu2.mmucache.mmubus.snoop_filter.hit_multi_snoops            0                       # Number of snoops hitting in the snoop filter with multiple (>1) holders of the requested data.
system.cpu2.mmucache.mmubus.snoop_filter.hit_single_requests            0                       # Number of requests hitting in the snoop filter with a single holder of the requested data.
system.cpu2.mmucache.mmubus.snoop_filter.hit_single_snoops            0                       # Number of snoops hitting in the snoop filter with a single holder of the requested data.
system.cpu2.mmucache.mmubus.snoop_filter.tot_requests            0                       # Total number of requests made to the snoop filter.
system.cpu2.mmucache.mmubus.snoop_filter.tot_snoops            0                       # Total number of snoops made to the snoop filter.
system.cpu2.not_idle_fraction                       1                       # Percentage of non-idle cycles
system.cpu2.numCycles                              30                       # number of cpu cycles simulated
system.cpu2.numWorkItemsCompleted                   0                       # number of work items this cpu completed
system.cpu2.numWorkItemsStarted                     0                       # number of work items this cpu started
system.cpu2.num_busy_cycles                        30                       # Number of busy cycles
system.cpu2.num_conditional_control_insts            0                       # number of instructions that are conditional controls
system.cpu2.num_fp_alu_accesses                    20                       # Number of float alu accesses
system.cpu2.num_fp_insts                           20                       # number of float instructions
system.cpu2.num_fp_register_reads                  36                       # number of times the floating registers were read
system.cpu2.num_fp_register_writes                 19                       # number of times the floating registers were written
system.cpu2.num_func_calls                          0                       # number of times a function call or return occured
system.cpu2.num_idle_cycles                         0                       # Number of idle cycles
system.cpu2.num_int_alu_accesses                    8                       # Number of integer alu accesses
system.cpu2.num_int_insts                           8                       # number of integer instructions
system.cpu2.num_int_register_reads                 24                       # number of times the integer registers were read
system.cpu2.num_int_register_writes                 0                       # number of times the integer registers were written
system.cpu2.num_load_insts                          7                       # Number of load instructions
system.cpu2.num_mem_refs                            8                       # number of memory refs
system.cpu2.num_store_insts                         1                       # Number of store instructions
system.cpu2.num_vec_alu_accesses                    0                       # Number of vector alu accesses
system.cpu2.num_vec_insts                           0                       # number of vector instructions
system.cpu2.num_vec_register_reads                  0                       # number of times the vector registers were read
system.cpu2.num_vec_register_writes                 0                       # number of times the vector registers were written
system.cpu2.op_class::No_OpClass                    0      0.00%      0.00% # Class of executed instruction
system.cpu2.op_class::IntAlu                        1      5.00%      5.00% # Class of executed instruction
system.cpu2.op_class::IntMult                       0      0.00%      5.00% # Class of executed instruction
system.cpu2.op_class::IntDiv                        0      0.00%      5.00% # Class of executed instruction
system.cpu2.op_class::FloatAdd                      0      0.00%      5.00% # Class of executed instruction
system.cpu2.op_class::FloatCmp                      0      0.00%      5.00% # Class of executed instruction
system.cpu2.op_class::FloatCvt                      0      0.00%      5.00% # Class of executed instruction
system.cpu2.op_class::FloatMult                     0      0.00%      5.00% # Class of executed instruction
system.cpu2.op_class::FloatMultAcc                  0      0.00%      5.00% # Class of executed instruction
system.cpu2.op_class::FloatDiv                      0      0.00%      5.00% # Class of executed instruction
system.cpu2.op_class::FloatMisc                     0      0.00%      5.00% # Class of executed instruction
system.cpu2.op_class::FloatSqrt                     0      0.00%      5.00% # Class of executed instruction
system.cpu2.op_class::SimdAdd                       0      0.00%      5.00% # Class of executed instruction
system.cpu2.op_class::SimdAddAcc                    0      0.00%      5.00% # Class of executed instruction
system.cpu2.op_class::SimdAlu                       0      0.00%      5.00% # Class of executed instruction
system.cpu2.op_class::SimdCmp                       0      0.00%      5.00% # Class of executed instruction
system.cpu2.op_class::SimdCvt                       0      0.00%      5.00% # Class of executed instruction
system.cpu2.op_class::SimdMisc                      0      0.00%      5.00% # Class of executed instruction
system.cpu2.op_class::SimdMult                      0      0.00%      5.00% # Class of executed instruction
system.cpu2.op_class::SimdMultAcc                   0      0.00%      5.00% # Class of executed instruction
system.cpu2.op_class::SimdShift                     0      0.00%      5.00% # Class of executed instruction
system.cpu2.op_class::SimdShiftAcc                  0      0.00%      5.00% # Class of executed instruction
system.cpu2.op_class::SimdDiv                       0      0.00%      5.00% # Class of executed instruction
system.cpu2.op_class::SimdSqrt                      0      0.00%      5.00% # Class of executed instruction
system.cpu2.op_class::SimdFloatAdd                  5     25.00%     30.00% # Class of executed instruction
system.cpu2.op_class::SimdFloatAlu                  0      0.00%     30.00% # Class of executed instruction
system.cpu2.op_class::SimdFloatCmp                  0      0.00%     30.00% # Class of executed instruction
system.cpu2.op_class::SimdFloatCvt                  0      0.00%     30.00% # Class of executed instruction
system.cpu2.op_class::SimdFloatDiv                  0      0.00%     30.00% # Class of executed instruction
system.cpu2.op_class::SimdFloatMisc                 0      0.00%     30.00% # Class of executed instruction
system.cpu2.op_class::SimdFloatMult                 6     30.00%     60.00% # Class of executed instruction
system.cpu2.op_class::SimdFloatMultAcc              0      0.00%     60.00% # Class of executed instruction
system.cpu2.op_class::SimdFloatSqrt                 0      0.00%     60.00% # Class of executed instruction
system.cpu2.op_class::SimdReduceAdd                 0      0.00%     60.00% # Class of executed instruction
system.cpu2.op_class::SimdReduceAlu                 0      0.00%     60.00% # Class of executed instruction
system.cpu2.op_class::SimdReduceCmp                 0      0.00%     60.00% # Class of executed instruction
system.cpu2.op_class::SimdFloatReduceAdd            0      0.00%     60.00% # Class of executed instruction
system.cpu2.op_class::SimdFloatReduceCmp            0      0.00%     60.00% # Class of executed instruction
system.cpu2.op_class::SimdAes                       0      0.00%     60.00% # Class of executed instruction
system.cpu2.op_class::SimdAesMix                    0      0.00%     60.00% # Class of executed instruction
system.cpu2.op_class::SimdSha1Hash                  0      0.00%     60.00% # Class of executed instruction
system.cpu2.op_class::SimdSha1Hash2                 0      0.00%     60.00% # Class of executed instruction
system.cpu2.op_class::SimdSha256Hash                0      0.00%     60.00% # Class of executed instruction
system.cpu2.op_class::SimdSha256Hash2               0      0.00%     60.00% # Class of executed instruction
system.cpu2.op_class::SimdShaSigma2                 0      0.00%     60.00% # Class of executed instruction
system.cpu2.op_class::SimdShaSigma3                 0      0.00%     60.00% # Class of executed instruction
system.cpu2.op_class::SimdPredAlu                   0      0.00%     60.00% # Class of executed instruction
system.cpu2.op_class::MemRead                       0      0.00%     60.00% # Class of executed instruction
system.cpu2.op_class::MemWrite                      0      0.00%     60.00% # Class of executed instruction
system.cpu2.op_class::FloatMemRead                  7     35.00%     95.00% # Class of executed instruction
system.cpu2.op_class::FloatMemWrite                 1      5.00%    100.00% # Class of executed instruction
system.cpu2.op_class::IprAccess                     0      0.00%    100.00% # Class of executed instruction
system.cpu2.op_class::InstPrefetch                  0      0.00%    100.00% # Class of executed instruction
system.cpu2.op_class::total                        20                       # Class of executed instruction
system.cpu2.workload.numSyscalls                    0                       # Number of system calls
system.cpu3.committedInsts                         19                       # Number of instructions committed
system.cpu3.committedOps                           20                       # Number of ops (including micro ops) committed
system.cpu3.idle_fraction                           0                       # Percentage of idle cycles
system.cpu3.l2bus.snoop_filter.hit_multi_requests            0                       # Number of requests hitting in the snoop filter with multiple (>1) holders of the requested data.
system.cpu3.l2bus.snoop_filter.hit_multi_snoops            0                       # Number of snoops hitting in the snoop filter with multiple (>1) holders of the requested data.
system.cpu3.l2bus.snoop_filter.hit_single_requests     12663652                       # Number of requests hitting in the snoop filter with a single holder of the requested data.
system.cpu3.l2bus.snoop_filter.hit_single_snoops      4657677                       # Number of snoops hitting in the snoop filter with a single holder of the requested data.
system.cpu3.l2bus.snoop_filter.tot_requests     21975733                       # Total number of requests made to the snoop filter.
system.cpu3.l2bus.snoop_filter.tot_snoops      4657677                       # Total number of snoops made to the snoop filter.
system.cpu3.mmucache.mmubus.snoop_filter.hit_multi_requests            0                       # Number of requests hitting in the snoop filter with multiple (>1) holders of the requested data.
system.cpu3.mmucache.mmubus.snoop_filter.hit_multi_snoops            0                       # Number of snoops hitting in the snoop filter with multiple (>1) holders of the requested data.
system.cpu3.mmucache.mmubus.snoop_filter.hit_single_requests            0                       # Number of requests hitting in the snoop filter with a single holder of the requested data.
system.cpu3.mmucache.mmubus.snoop_filter.hit_single_snoops            0                       # Number of snoops hitting in the snoop filter with a single holder of the requested data.
system.cpu3.mmucache.mmubus.snoop_filter.tot_requests            0                       # Total number of requests made to the snoop filter.
system.cpu3.mmucache.mmubus.snoop_filter.tot_snoops            0                       # Total number of snoops made to the snoop filter.
system.cpu3.not_idle_fraction                       1                       # Percentage of non-idle cycles
system.cpu3.numCycles                              30                       # number of cpu cycles simulated
system.cpu3.numWorkItemsCompleted                   0                       # number of work items this cpu completed
system.cpu3.numWorkItemsStarted                     0                       # number of work items this cpu started
system.cpu3.num_busy_cycles                        30                       # Number of busy cycles
system.cpu3.num_conditional_control_insts            0                       # number of instructions that are conditional controls
system.cpu3.num_fp_alu_accesses                    20                       # Number of float alu accesses
system.cpu3.num_fp_insts                           20                       # number of float instructions
system.cpu3.num_fp_register_reads                  36                       # number of times the floating registers were read
system.cpu3.num_fp_register_writes                 19                       # number of times the floating registers were written
system.cpu3.num_func_calls                          0                       # number of times a function call or return occured
system.cpu3.num_idle_cycles                         0                       # Number of idle cycles
system.cpu3.num_int_alu_accesses                    8                       # Number of integer alu accesses
system.cpu3.num_int_insts                           8                       # number of integer instructions
system.cpu3.num_int_register_reads                 24                       # number of times the integer registers were read
system.cpu3.num_int_register_writes                 0                       # number of times the integer registers were written
system.cpu3.num_load_insts                          7                       # Number of load instructions
system.cpu3.num_mem_refs                            8                       # number of memory refs
system.cpu3.num_store_insts                         1                       # Number of store instructions
system.cpu3.num_vec_alu_accesses                    0                       # Number of vector alu accesses
system.cpu3.num_vec_insts                           0                       # number of vector instructions
system.cpu3.num_vec_register_reads                  0                       # number of times the vector registers were read
system.cpu3.num_vec_register_writes                 0                       # number of times the vector registers were written
system.cpu3.op_class::No_OpClass                    0      0.00%      0.00% # Class of executed instruction
system.cpu3.op_class::IntAlu                        1      5.00%      5.00% # Class of executed instruction
system.cpu3.op_class::IntMult                       0      0.00%      5.00% # Class of executed instruction
system.cpu3.op_class::IntDiv                        0      0.00%      5.00% # Class of executed instruction
system.cpu3.op_class::FloatAdd                      0      0.00%      5.00% # Class of executed instruction
system.cpu3.op_class::FloatCmp                      0      0.00%      5.00% # Class of executed instruction
system.cpu3.op_class::FloatCvt                      0      0.00%      5.00% # Class of executed instruction
system.cpu3.op_class::FloatMult                     0      0.00%      5.00% # Class of executed instruction
system.cpu3.op_class::FloatMultAcc                  0      0.00%      5.00% # Class of executed instruction
system.cpu3.op_class::FloatDiv                      0      0.00%      5.00% # Class of executed instruction
system.cpu3.op_class::FloatMisc                     0      0.00%      5.00% # Class of executed instruction
system.cpu3.op_class::FloatSqrt                     0      0.00%      5.00% # Class of executed instruction
system.cpu3.op_class::SimdAdd                       0      0.00%      5.00% # Class of executed instruction
system.cpu3.op_class::SimdAddAcc                    0      0.00%      5.00% # Class of executed instruction
system.cpu3.op_class::SimdAlu                       0      0.00%      5.00% # Class of executed instruction
system.cpu3.op_class::SimdCmp                       0      0.00%      5.00% # Class of executed instruction
system.cpu3.op_class::SimdCvt                       0      0.00%      5.00% # Class of executed instruction
system.cpu3.op_class::SimdMisc                      0      0.00%      5.00% # Class of executed instruction
system.cpu3.op_class::SimdMult                      0      0.00%      5.00% # Class of executed instruction
system.cpu3.op_class::SimdMultAcc                   0      0.00%      5.00% # Class of executed instruction
system.cpu3.op_class::SimdShift                     0      0.00%      5.00% # Class of executed instruction
system.cpu3.op_class::SimdShiftAcc                  0      0.00%      5.00% # Class of executed instruction
system.cpu3.op_class::SimdDiv                       0      0.00%      5.00% # Class of executed instruction
system.cpu3.op_class::SimdSqrt                      0      0.00%      5.00% # Class of executed instruction
system.cpu3.op_class::SimdFloatAdd                  5     25.00%     30.00% # Class of executed instruction
system.cpu3.op_class::SimdFloatAlu                  0      0.00%     30.00% # Class of executed instruction
system.cpu3.op_class::SimdFloatCmp                  0      0.00%     30.00% # Class of executed instruction
system.cpu3.op_class::SimdFloatCvt                  0      0.00%     30.00% # Class of executed instruction
system.cpu3.op_class::SimdFloatDiv                  0      0.00%     30.00% # Class of executed instruction
system.cpu3.op_class::SimdFloatMisc                 0      0.00%     30.00% # Class of executed instruction
system.cpu3.op_class::SimdFloatMult                 6     30.00%     60.00% # Class of executed instruction
system.cpu3.op_class::SimdFloatMultAcc              0      0.00%     60.00% # Class of executed instruction
system.cpu3.op_class::SimdFloatSqrt                 0      0.00%     60.00% # Class of executed instruction
system.cpu3.op_class::SimdReduceAdd                 0      0.00%     60.00% # Class of executed instruction
system.cpu3.op_class::SimdReduceAlu                 0      0.00%     60.00% # Class of executed instruction
system.cpu3.op_class::SimdReduceCmp                 0      0.00%     60.00% # Class of executed instruction
system.cpu3.op_class::SimdFloatReduceAdd            0      0.00%     60.00% # Class of executed instruction
system.cpu3.op_class::SimdFloatReduceCmp            0      0.00%     60.00% # Class of executed instruction
system.cpu3.op_class::SimdAes                       0      0.00%     60.00% # Class of executed instruction
system.cpu3.op_class::SimdAesMix                    0      0.00%     60.00% # Class of executed instruction
system.cpu3.op_class::SimdSha1Hash                  0      0.00%     60.00% # Class of executed instruction
system.cpu3.op_class::SimdSha1Hash2                 0      0.00%     60.00% # Class of executed instruction
system.cpu3.op_class::SimdSha256Hash                0      0.00%     60.00% # Class of executed instruction
system.cpu3.op_class::SimdSha256Hash2               0      0.00%     60.00% # Class of executed instruction
system.cpu3.op_class::SimdShaSigma2                 0      0.00%     60.00% # Class of executed instruction
system.cpu3.op_class::SimdShaSigma3                 0      0.00%     60.00% # Class of executed instruction
system.cpu3.op_class::SimdPredAlu                   0      0.00%     60.00% # Class of executed instruction
system.cpu3.op_class::MemRead                       0      0.00%     60.00% # Class of executed instruction
system.cpu3.op_class::MemWrite                      0      0.00%     60.00% # Class of executed instruction
system.cpu3.op_class::FloatMemRead                  7     35.00%     95.00% # Class of executed instruction
system.cpu3.op_class::FloatMemWrite                 1      5.00%    100.00% # Class of executed instruction
system.cpu3.op_class::IprAccess                     0      0.00%    100.00% # Class of executed instruction
system.cpu3.op_class::InstPrefetch                  0      0.00%    100.00% # Class of executed instruction
system.cpu3.op_class::total                        20                       # Class of executed instruction
system.cpu3.workload.numSyscalls                    0                       # Number of system calls
system.l3bus.snoop_filter.hit_multi_requests            0                       # Number of requests hitting in the snoop filter with multiple (>1) holders of the requested data.
system.l3bus.snoop_filter.hit_multi_snoops            0                       # Number of snoops hitting in the snoop filter with multiple (>1) holders of the requested data.
system.l3bus.snoop_filter.hit_single_requests     38834793                       # Number of requests hitting in the snoop filter with a single holder of the requested data.
system.l3bus.snoop_filter.hit_single_snoops            0                       # Number of snoops hitting in the snoop filter with a single holder of the requested data.
system.l3bus.snoop_filter.tot_requests       77249575                       # Total number of requests made to the snoop filter.
system.l3bus.snoop_filter.tot_snoops                0                       # Total number of snoops made to the snoop filter.
system.membus.snoop_filter.hit_multi_requests            0                       # Number of requests hitting in the snoop filter with multiple (>1) holders of the requested data.
system.membus.snoop_filter.hit_multi_snoops            0                       # Number of snoops hitting in the snoop filter with multiple (>1) holders of the requested data.
system.membus.snoop_filter.hit_single_requests     22504832                       # Number of requests hitting in the snoop filter with a single holder of the requested data.
system.membus.snoop_filter.hit_single_snoops            0                       # Number of snoops hitting in the snoop filter with a single holder of the requested data.
system.membus.snoop_filter.tot_requests      45074483                       # Total number of requests made to the snoop filter.
system.membus.snoop_filter.tot_snoops               0                       # Total number of snoops made to the snoop filter.
system.switch_cpus0.cc_regfile_reads          9296451                       # number of cc regfile reads
system.switch_cpus0.cc_regfile_writes         4423883                       # number of cc regfile writes
system.switch_cpus0.committedInsts          249882188                       # Number of Instructions Simulated
system.switch_cpus0.committedOps            275045992                       # Number of Ops (including micro ops) Simulated
system.switch_cpus0.cpi                      4.377424                       # CPI: Cycles Per Instruction
system.switch_cpus0.cpi_total                4.377424                       # CPI: Total CPI of All Threads
system.switch_cpus0.fp_regfile_reads        454865736                       # number of floating regfile reads
system.switch_cpus0.fp_regfile_writes       206008467                       # number of floating regfile writes
system.switch_cpus0.idleCycles                   8228                       # Total number of cycles that the CPU has spent unscheduled due to idling
system.switch_cpus0.iew.branchMispredicts         6481                       # Number of branch mispredicts detected at execute
system.switch_cpus0.iew.exec_branches         1660936                       # Number of branches executed
system.switch_cpus0.iew.exec_nop                    0                       # number of nop insts executed
system.switch_cpus0.iew.exec_rate            0.326978                       # Inst execution rate
system.switch_cpus0.iew.exec_refs           191659445                       # number of memory reference insts executed
system.switch_cpus0.iew.exec_stores          31295574                       # Number of stores executed
system.switch_cpus0.iew.exec_swp                    0                       # number of swp insts executed
system.switch_cpus0.iew.iewBlockCycles      185898165                       # Number of cycles IEW is blocking
system.switch_cpus0.iew.iewDispLoadInsts     77957381                       # Number of dispatched load instructions
system.switch_cpus0.iew.iewDispNonSpecInsts            0                       # Number of dispatched non-speculative instructions
system.switch_cpus0.iew.iewDispSquashedInsts          321                       # Number of squashed instructions skipped by dispatch
system.switch_cpus0.iew.iewDispStoreInsts     31352400                       # Number of dispatched store instructions
system.switch_cpus0.iew.iewDispatchedInsts    275335174                       # Number of instructions dispatched to IQ
system.switch_cpus0.iew.iewExecLoadInsts    160363871                       # Number of load instructions executed
system.switch_cpus0.iew.iewExecSquashedInsts         1483                       # Number of squashed instructions skipped in execute
system.switch_cpus0.iew.iewExecutedInsts    357661142                       # Number of executed instructions
system.switch_cpus0.iew.iewIQFullEvents       1818623                       # Number of times the IQ has become full, causing a stall
system.switch_cpus0.iew.iewIdleCycles               0                       # Number of cycles IEW is idle
system.switch_cpus0.iew.iewLSQFullEvents    322976987                       # Number of times the LSQ has become full, causing a stall
system.switch_cpus0.iew.iewSquashCycles          7495                       # Number of cycles IEW is squashing
system.switch_cpus0.iew.iewUnblockCycles    325290405                       # Number of cycles IEW is unblocking
system.switch_cpus0.iew.memOrderViolationEvents         2165                       # Number of memory order violations
system.switch_cpus0.iew.predictedNotTakenIncorrect         6087                       # Number of branches that were predicted not taken incorrectly
system.switch_cpus0.iew.predictedTakenIncorrect          394                       # Number of branches that were predicted taken incorrectly
system.switch_cpus0.iew.wb_consumers        377674130                       # num instructions consuming a value
system.switch_cpus0.iew.wb_count            275195144                       # cumulative count of insts written-back
system.switch_cpus0.iew.wb_fanout            0.532400                       # average fanout of values written-back
system.switch_cpus0.iew.wb_producers        201073884                       # num instructions producing a value
system.switch_cpus0.iew.wb_rate              0.251586                       # insts written-back per cycle
system.switch_cpus0.iew.wb_sent             275196059                       # cumulative count of insts sent to commit
system.switch_cpus0.int_regfile_reads       419351068                       # number of integer regfile reads
system.switch_cpus0.int_regfile_writes       36231175                       # number of integer regfile writes
system.switch_cpus0.ipc                      0.228445                       # IPC: Instructions Per Cycle
system.switch_cpus0.ipc_total                0.228445                       # IPC: Total IPC of All Threads
system.switch_cpus0.iq.FU_type_0::No_OpClass            0      0.00%      0.00% # Type of FU issued
system.switch_cpus0.iq.FU_type_0::IntAlu     40321196     11.27%     11.27% # Type of FU issued
system.switch_cpus0.iq.FU_type_0::IntMult            0      0.00%     11.27% # Type of FU issued
system.switch_cpus0.iq.FU_type_0::IntDiv            0      0.00%     11.27% # Type of FU issued
system.switch_cpus0.iq.FU_type_0::FloatAdd            0      0.00%     11.27% # Type of FU issued
system.switch_cpus0.iq.FU_type_0::FloatCmp            0      0.00%     11.27% # Type of FU issued
system.switch_cpus0.iq.FU_type_0::FloatCvt            0      0.00%     11.27% # Type of FU issued
system.switch_cpus0.iq.FU_type_0::FloatMult            0      0.00%     11.27% # Type of FU issued
system.switch_cpus0.iq.FU_type_0::FloatMultAcc            0      0.00%     11.27% # Type of FU issued
system.switch_cpus0.iq.FU_type_0::FloatDiv            0      0.00%     11.27% # Type of FU issued
system.switch_cpus0.iq.FU_type_0::FloatMisc            0      0.00%     11.27% # Type of FU issued
system.switch_cpus0.iq.FU_type_0::FloatSqrt            0      0.00%     11.27% # Type of FU issued
system.switch_cpus0.iq.FU_type_0::SimdAdd            0      0.00%     11.27% # Type of FU issued
system.switch_cpus0.iq.FU_type_0::SimdAddAcc            0      0.00%     11.27% # Type of FU issued
system.switch_cpus0.iq.FU_type_0::SimdAlu        37219      0.01%     11.28% # Type of FU issued
system.switch_cpus0.iq.FU_type_0::SimdCmp            0      0.00%     11.28% # Type of FU issued
system.switch_cpus0.iq.FU_type_0::SimdCvt            0      0.00%     11.28% # Type of FU issued
system.switch_cpus0.iq.FU_type_0::SimdMisc            0      0.00%     11.28% # Type of FU issued
system.switch_cpus0.iq.FU_type_0::SimdMult            0      0.00%     11.28% # Type of FU issued
system.switch_cpus0.iq.FU_type_0::SimdMultAcc            0      0.00%     11.28% # Type of FU issued
system.switch_cpus0.iq.FU_type_0::SimdShift            0      0.00%     11.28% # Type of FU issued
system.switch_cpus0.iq.FU_type_0::SimdShiftAcc            0      0.00%     11.28% # Type of FU issued
system.switch_cpus0.iq.FU_type_0::SimdDiv            0      0.00%     11.28% # Type of FU issued
system.switch_cpus0.iq.FU_type_0::SimdSqrt            0      0.00%     11.28% # Type of FU issued
system.switch_cpus0.iq.FU_type_0::SimdFloatAdd     77244081     21.60%     32.88% # Type of FU issued
system.switch_cpus0.iq.FU_type_0::SimdFloatAlu            0      0.00%     32.88% # Type of FU issued
system.switch_cpus0.iq.FU_type_0::SimdFloatCmp            0      0.00%     32.88% # Type of FU issued
system.switch_cpus0.iq.FU_type_0::SimdFloatCvt            0      0.00%     32.88% # Type of FU issued
system.switch_cpus0.iq.FU_type_0::SimdFloatDiv      1487658      0.42%     33.30% # Type of FU issued
system.switch_cpus0.iq.FU_type_0::SimdFloatMisc            0      0.00%     33.30% # Type of FU issued
system.switch_cpus0.iq.FU_type_0::SimdFloatMult     46911932     13.12%     46.41% # Type of FU issued
system.switch_cpus0.iq.FU_type_0::SimdFloatMultAcc            0      0.00%     46.41% # Type of FU issued
system.switch_cpus0.iq.FU_type_0::SimdFloatSqrt            0      0.00%     46.41% # Type of FU issued
system.switch_cpus0.iq.FU_type_0::SimdReduceAdd            0      0.00%     46.41% # Type of FU issued
system.switch_cpus0.iq.FU_type_0::SimdReduceAlu            0      0.00%     46.41% # Type of FU issued
system.switch_cpus0.iq.FU_type_0::SimdReduceCmp            0      0.00%     46.41% # Type of FU issued
system.switch_cpus0.iq.FU_type_0::SimdFloatReduceAdd            0      0.00%     46.41% # Type of FU issued
system.switch_cpus0.iq.FU_type_0::SimdFloatReduceCmp            0      0.00%     46.41% # Type of FU issued
system.switch_cpus0.iq.FU_type_0::SimdAes            0      0.00%     46.41% # Type of FU issued
system.switch_cpus0.iq.FU_type_0::SimdAesMix            0      0.00%     46.41% # Type of FU issued
system.switch_cpus0.iq.FU_type_0::SimdSha1Hash            0      0.00%     46.41% # Type of FU issued
system.switch_cpus0.iq.FU_type_0::SimdSha1Hash2            0      0.00%     46.41% # Type of FU issued
system.switch_cpus0.iq.FU_type_0::SimdSha256Hash            0      0.00%     46.41% # Type of FU issued
system.switch_cpus0.iq.FU_type_0::SimdSha256Hash2            0      0.00%     46.41% # Type of FU issued
system.switch_cpus0.iq.FU_type_0::SimdShaSigma2            0      0.00%     46.41% # Type of FU issued
system.switch_cpus0.iq.FU_type_0::SimdShaSigma3            0      0.00%     46.41% # Type of FU issued
system.switch_cpus0.iq.FU_type_0::SimdPredAlu            0      0.00%     46.41% # Type of FU issued
system.switch_cpus0.iq.FU_type_0::MemRead     53572816     14.98%     61.39% # Type of FU issued
system.switch_cpus0.iq.FU_type_0::MemWrite       129171      0.04%     61.43% # Type of FU issued
system.switch_cpus0.iq.FU_type_0::FloatMemRead    106792035     29.86%     91.29% # Type of FU issued
system.switch_cpus0.iq.FU_type_0::FloatMemWrite     31166517      8.71%    100.00% # Type of FU issued
system.switch_cpus0.iq.FU_type_0::IprAccess            0      0.00%    100.00% # Type of FU issued
system.switch_cpus0.iq.FU_type_0::InstPrefetch            0      0.00%    100.00% # Type of FU issued
system.switch_cpus0.iq.FU_type_0::total     357662625                       # Type of FU issued
system.switch_cpus0.iq.fp_alu_accesses      320982613                       # Number of floating point alu accesses
system.switch_cpus0.iq.fp_inst_queue_reads    607969311                       # Number of floating instruction queue reads
system.switch_cpus0.iq.fp_inst_queue_wakeup_accesses    237174369                       # Number of floating instruction queue wakeup accesses
system.switch_cpus0.iq.fp_inst_queue_writes    237480062                       # Number of floating instruction queue writes
system.switch_cpus0.iq.fu_busy_cnt           44270591                       # FU busy when requested
system.switch_cpus0.iq.fu_busy_rate          0.123778                       # FU busy rate (busy events/executed inst)
system.switch_cpus0.iq.fu_full::No_OpClass            0      0.00%      0.00% # attempts to use FU when none available
system.switch_cpus0.iq.fu_full::IntAlu         490633      1.11%      1.11% # attempts to use FU when none available
system.switch_cpus0.iq.fu_full::IntMult             0      0.00%      1.11% # attempts to use FU when none available
system.switch_cpus0.iq.fu_full::IntDiv              0      0.00%      1.11% # attempts to use FU when none available
system.switch_cpus0.iq.fu_full::FloatAdd            0      0.00%      1.11% # attempts to use FU when none available
system.switch_cpus0.iq.fu_full::FloatCmp            0      0.00%      1.11% # attempts to use FU when none available
system.switch_cpus0.iq.fu_full::FloatCvt            0      0.00%      1.11% # attempts to use FU when none available
system.switch_cpus0.iq.fu_full::FloatMult            0      0.00%      1.11% # attempts to use FU when none available
system.switch_cpus0.iq.fu_full::FloatMultAcc            0      0.00%      1.11% # attempts to use FU when none available
system.switch_cpus0.iq.fu_full::FloatDiv            0      0.00%      1.11% # attempts to use FU when none available
system.switch_cpus0.iq.fu_full::FloatMisc            0      0.00%      1.11% # attempts to use FU when none available
system.switch_cpus0.iq.fu_full::FloatSqrt            0      0.00%      1.11% # attempts to use FU when none available
system.switch_cpus0.iq.fu_full::SimdAdd             0      0.00%      1.11% # attempts to use FU when none available
system.switch_cpus0.iq.fu_full::SimdAddAcc            0      0.00%      1.11% # attempts to use FU when none available
system.switch_cpus0.iq.fu_full::SimdAlu             0      0.00%      1.11% # attempts to use FU when none available
system.switch_cpus0.iq.fu_full::SimdCmp             0      0.00%      1.11% # attempts to use FU when none available
system.switch_cpus0.iq.fu_full::SimdCvt             0      0.00%      1.11% # attempts to use FU when none available
system.switch_cpus0.iq.fu_full::SimdMisc            0      0.00%      1.11% # attempts to use FU when none available
system.switch_cpus0.iq.fu_full::SimdMult            0      0.00%      1.11% # attempts to use FU when none available
system.switch_cpus0.iq.fu_full::SimdMultAcc            0      0.00%      1.11% # attempts to use FU when none available
system.switch_cpus0.iq.fu_full::SimdShift            0      0.00%      1.11% # attempts to use FU when none available
system.switch_cpus0.iq.fu_full::SimdShiftAcc            0      0.00%      1.11% # attempts to use FU when none available
system.switch_cpus0.iq.fu_full::SimdDiv             0      0.00%      1.11% # attempts to use FU when none available
system.switch_cpus0.iq.fu_full::SimdSqrt            0      0.00%      1.11% # attempts to use FU when none available
system.switch_cpus0.iq.fu_full::SimdFloatAdd      5075854     11.47%     12.57% # attempts to use FU when none available
system.switch_cpus0.iq.fu_full::SimdFloatAlu            0      0.00%     12.57% # attempts to use FU when none available
system.switch_cpus0.iq.fu_full::SimdFloatCmp            0      0.00%     12.57% # attempts to use FU when none available
system.switch_cpus0.iq.fu_full::SimdFloatCvt            0      0.00%     12.57% # attempts to use FU when none available
system.switch_cpus0.iq.fu_full::SimdFloatDiv            0      0.00%     12.57% # attempts to use FU when none available
system.switch_cpus0.iq.fu_full::SimdFloatMisc            0      0.00%     12.57% # attempts to use FU when none available
system.switch_cpus0.iq.fu_full::SimdFloatMult      5193618     11.73%     24.31% # attempts to use FU when none available
system.switch_cpus0.iq.fu_full::SimdFloatMultAcc            0      0.00%     24.31% # attempts to use FU when none available
system.switch_cpus0.iq.fu_full::SimdFloatSqrt            0      0.00%     24.31% # attempts to use FU when none available
system.switch_cpus0.iq.fu_full::SimdReduceAdd            0      0.00%     24.31% # attempts to use FU when none available
system.switch_cpus0.iq.fu_full::SimdReduceAlu            0      0.00%     24.31% # attempts to use FU when none available
system.switch_cpus0.iq.fu_full::SimdReduceCmp            0      0.00%     24.31% # attempts to use FU when none available
system.switch_cpus0.iq.fu_full::SimdFloatReduceAdd            0      0.00%     24.31% # attempts to use FU when none available
system.switch_cpus0.iq.fu_full::SimdFloatReduceCmp            0      0.00%     24.31% # attempts to use FU when none available
system.switch_cpus0.iq.fu_full::SimdAes             0      0.00%     24.31% # attempts to use FU when none available
system.switch_cpus0.iq.fu_full::SimdAesMix            0      0.00%     24.31% # attempts to use FU when none available
system.switch_cpus0.iq.fu_full::SimdSha1Hash            0      0.00%     24.31% # attempts to use FU when none available
system.switch_cpus0.iq.fu_full::SimdSha1Hash2            0      0.00%     24.31% # attempts to use FU when none available
system.switch_cpus0.iq.fu_full::SimdSha256Hash            0      0.00%     24.31% # attempts to use FU when none available
system.switch_cpus0.iq.fu_full::SimdSha256Hash2            0      0.00%     24.31% # attempts to use FU when none available
system.switch_cpus0.iq.fu_full::SimdShaSigma2            0      0.00%     24.31% # attempts to use FU when none available
system.switch_cpus0.iq.fu_full::SimdShaSigma3            0      0.00%     24.31% # attempts to use FU when none available
system.switch_cpus0.iq.fu_full::SimdPredAlu            0      0.00%     24.31% # attempts to use FU when none available
system.switch_cpus0.iq.fu_full::MemRead      10250473     23.15%     47.46% # attempts to use FU when none available
system.switch_cpus0.iq.fu_full::MemWrite        24001      0.05%     47.51% # attempts to use FU when none available
system.switch_cpus0.iq.fu_full::FloatMemRead     21537265     48.65%     96.16% # attempts to use FU when none available
system.switch_cpus0.iq.fu_full::FloatMemWrite      1698747      3.84%    100.00% # attempts to use FU when none available
system.switch_cpus0.iq.fu_full::IprAccess            0      0.00%    100.00% # attempts to use FU when none available
system.switch_cpus0.iq.fu_full::InstPrefetch            0      0.00%    100.00% # attempts to use FU when none available
system.switch_cpus0.iq.int_alu_accesses      80950603                       # Number of integer alu accesses
system.switch_cpus0.iq.int_inst_queue_reads   1245458870                       # Number of integer instruction queue reads
system.switch_cpus0.iq.int_inst_queue_wakeup_accesses     38020775                       # Number of integer instruction queue wakeup accesses
system.switch_cpus0.iq.int_inst_queue_writes     38146407                       # Number of integer instruction queue writes
system.switch_cpus0.iq.iqInstsAdded         275335174                       # Number of instructions added to the IQ (excludes non-spec)
system.switch_cpus0.iq.iqInstsIssued        357662625                       # Number of instructions issued
system.switch_cpus0.iq.iqSquashedInstsExamined       289130                       # Number of squashed instructions iterated over during squash; mainly for profiling
system.switch_cpus0.iq.iqSquashedInstsIssued          344                       # Number of squashed instructions issued
system.switch_cpus0.iq.iqSquashedOperandsExamined       469000                       # Number of squashed operands that are examined and possibly removed from graph
system.switch_cpus0.iq.issued_per_cycle::samples   1093831996                       # Number of insts issued each cycle
system.switch_cpus0.iq.issued_per_cycle::mean     0.326981                       # Number of insts issued each cycle
system.switch_cpus0.iq.issued_per_cycle::stdev     1.248460                       # Number of insts issued each cycle
system.switch_cpus0.iq.issued_per_cycle::underflows            0      0.00%      0.00% # Number of insts issued each cycle
system.switch_cpus0.iq.issued_per_cycle::0   1003843080     91.77%     91.77% # Number of insts issued each cycle
system.switch_cpus0.iq.issued_per_cycle::1     14731982      1.35%     93.12% # Number of insts issued each cycle
system.switch_cpus0.iq.issued_per_cycle::2     11691316      1.07%     94.19% # Number of insts issued each cycle
system.switch_cpus0.iq.issued_per_cycle::3      6909786      0.63%     94.82% # Number of insts issued each cycle
system.switch_cpus0.iq.issued_per_cycle::4     27171968      2.48%     97.30% # Number of insts issued each cycle
system.switch_cpus0.iq.issued_per_cycle::5      7933931      0.73%     98.03% # Number of insts issued each cycle
system.switch_cpus0.iq.issued_per_cycle::6      7472888      0.68%     98.71% # Number of insts issued each cycle
system.switch_cpus0.iq.issued_per_cycle::7      6992562      0.64%     99.35% # Number of insts issued each cycle
system.switch_cpus0.iq.issued_per_cycle::8      7084483      0.65%    100.00% # Number of insts issued each cycle
system.switch_cpus0.iq.issued_per_cycle::overflows            0      0.00%    100.00% # Number of insts issued each cycle
system.switch_cpus0.iq.issued_per_cycle::min_value            0                       # Number of insts issued each cycle
system.switch_cpus0.iq.issued_per_cycle::max_value            8                       # Number of insts issued each cycle
system.switch_cpus0.iq.issued_per_cycle::total   1093831996                       # Number of insts issued each cycle
system.switch_cpus0.iq.rate                  0.326979                       # Inst issue rate
system.switch_cpus0.iq.vec_alu_accesses             0                       # Number of vector alu accesses
system.switch_cpus0.iq.vec_inst_queue_reads            0                       # Number of vector instruction queue reads
system.switch_cpus0.iq.vec_inst_queue_wakeup_accesses            0                       # Number of vector instruction queue wakeup accesses
system.switch_cpus0.iq.vec_inst_queue_writes            0                       # Number of vector instruction queue writes
system.switch_cpus0.memDep0.conflictingLoads      2726284                       # Number of conflicting loads.
system.switch_cpus0.memDep0.conflictingStores       990341                       # Number of conflicting stores.
system.switch_cpus0.memDep0.insertedLoads     77957381                       # Number of loads inserted to the mem dependence unit.
system.switch_cpus0.memDep0.insertedStores     31352400                       # Number of stores inserted to the mem dependence unit.
system.switch_cpus0.misc_regfile_reads      200292613                       # number of misc regfile reads
system.switch_cpus0.misc_regfile_writes             1                       # number of misc regfile writes
system.switch_cpus0.numCycles              1093840224                       # number of cpu cycles simulated
system.switch_cpus0.numWorkItemsCompleted            0                       # number of work items this cpu completed
system.switch_cpus0.numWorkItemsStarted             0                       # number of work items this cpu started
system.switch_cpus0.timesIdled                     38                       # Number of times that the entire CPU went into an idle state and unscheduled itself
system.switch_cpus1.cc_regfile_reads          9296573                       # number of cc regfile reads
system.switch_cpus1.cc_regfile_writes         4423961                       # number of cc regfile writes
system.switch_cpus1.committedInsts          249885092                       # Number of Instructions Simulated
system.switch_cpus1.committedOps            275049184                       # Number of Ops (including micro ops) Simulated
system.switch_cpus1.cpi                      4.377373                       # CPI: Cycles Per Instruction
system.switch_cpus1.cpi_total                4.377373                       # CPI: Total CPI of All Threads
system.switch_cpus1.fp_regfile_reads        454871187                       # number of floating regfile reads
system.switch_cpus1.fp_regfile_writes       206010963                       # number of floating regfile writes
system.switch_cpus1.idleCycles                   9023                       # Total number of cycles that the CPU has spent unscheduled due to idling
system.switch_cpus1.iew.branchMispredicts         6481                       # Number of branch mispredicts detected at execute
system.switch_cpus1.iew.exec_branches         1660955                       # Number of branches executed
system.switch_cpus1.iew.exec_nop                    0                       # number of nop insts executed
system.switch_cpus1.iew.exec_rate            0.325504                       # Inst execution rate
system.switch_cpus1.iew.exec_refs           190045939                       # number of memory reference insts executed
system.switch_cpus1.iew.exec_stores          31296018                       # Number of stores executed
system.switch_cpus1.iew.exec_swp                    0                       # number of swp insts executed
system.switch_cpus1.iew.iewBlockCycles      181867497                       # Number of cycles IEW is blocking
system.switch_cpus1.iew.iewDispLoadInsts     77958461                       # Number of dispatched load instructions
system.switch_cpus1.iew.iewDispNonSpecInsts            0                       # Number of dispatched non-speculative instructions
system.switch_cpus1.iew.iewDispSquashedInsts          329                       # Number of squashed instructions skipped by dispatch
system.switch_cpus1.iew.iewDispStoreInsts     31352911                       # Number of dispatched store instructions
system.switch_cpus1.iew.iewDispatchedInsts    275338833                       # Number of instructions dispatched to IQ
system.switch_cpus1.iew.iewExecLoadInsts    158749921                       # Number of load instructions executed
system.switch_cpus1.iew.iewExecSquashedInsts         1392                       # Number of squashed instructions skipped in execute
system.switch_cpus1.iew.iewExecutedInsts    356049596                       # Number of executed instructions
system.switch_cpus1.iew.iewIQFullEvents       1808028                       # Number of times the IQ has become full, causing a stall
system.switch_cpus1.iew.iewIdleCycles               0                       # Number of cycles IEW is idle
system.switch_cpus1.iew.iewLSQFullEvents    321325267                       # Number of times the LSQ has become full, causing a stall
system.switch_cpus1.iew.iewSquashCycles          7496                       # Number of cycles IEW is squashing
system.switch_cpus1.iew.iewUnblockCycles    323628448                       # Number of cycles IEW is unblocking
system.switch_cpus1.iew.memOrderViolationEvents         2160                       # Number of memory order violations
system.switch_cpus1.iew.predictedNotTakenIncorrect         6087                       # Number of branches that were predicted not taken incorrectly
system.switch_cpus1.iew.predictedTakenIncorrect          394                       # Number of branches that were predicted taken incorrectly
system.switch_cpus1.iew.wb_consumers        377831715                       # num instructions consuming a value
system.switch_cpus1.iew.wb_count            275198678                       # cumulative count of insts written-back
system.switch_cpus1.iew.wb_fanout            0.532181                       # average fanout of values written-back
system.switch_cpus1.iew.wb_producers        201074944                       # num instructions producing a value
system.switch_cpus1.iew.wb_rate              0.251589                       # insts written-back per cycle
system.switch_cpus1.iew.wb_sent             275199606                       # cumulative count of insts sent to commit
system.switch_cpus1.int_regfile_reads       416124663                       # number of integer regfile reads
system.switch_cpus1.int_regfile_writes       36231763                       # number of integer regfile writes
system.switch_cpus1.ipc                      0.228448                       # IPC: Instructions Per Cycle
system.switch_cpus1.ipc_total                0.228448                       # IPC: Total IPC of All Threads
system.switch_cpus1.iq.FU_type_0::No_OpClass            0      0.00%      0.00% # Type of FU issued
system.switch_cpus1.iq.FU_type_0::IntAlu     40321651     11.32%     11.32% # Type of FU issued
system.switch_cpus1.iq.FU_type_0::IntMult            0      0.00%     11.32% # Type of FU issued
system.switch_cpus1.iq.FU_type_0::IntDiv            0      0.00%     11.32% # Type of FU issued
system.switch_cpus1.iq.FU_type_0::FloatAdd            0      0.00%     11.32% # Type of FU issued
system.switch_cpus1.iq.FU_type_0::FloatCmp            0      0.00%     11.32% # Type of FU issued
system.switch_cpus1.iq.FU_type_0::FloatCvt            0      0.00%     11.32% # Type of FU issued
system.switch_cpus1.iq.FU_type_0::FloatMult            0      0.00%     11.32% # Type of FU issued
system.switch_cpus1.iq.FU_type_0::FloatMultAcc            0      0.00%     11.32% # Type of FU issued
system.switch_cpus1.iq.FU_type_0::FloatDiv            0      0.00%     11.32% # Type of FU issued
system.switch_cpus1.iq.FU_type_0::FloatMisc            0      0.00%     11.32% # Type of FU issued
system.switch_cpus1.iq.FU_type_0::FloatSqrt            0      0.00%     11.32% # Type of FU issued
system.switch_cpus1.iq.FU_type_0::SimdAdd            0      0.00%     11.32% # Type of FU issued
system.switch_cpus1.iq.FU_type_0::SimdAddAcc            0      0.00%     11.32% # Type of FU issued
system.switch_cpus1.iq.FU_type_0::SimdAlu        37231      0.01%     11.34% # Type of FU issued
system.switch_cpus1.iq.FU_type_0::SimdCmp            0      0.00%     11.34% # Type of FU issued
system.switch_cpus1.iq.FU_type_0::SimdCvt            0      0.00%     11.34% # Type of FU issued
system.switch_cpus1.iq.FU_type_0::SimdMisc            0      0.00%     11.34% # Type of FU issued
system.switch_cpus1.iq.FU_type_0::SimdMult            0      0.00%     11.34% # Type of FU issued
system.switch_cpus1.iq.FU_type_0::SimdMultAcc            0      0.00%     11.34% # Type of FU issued
system.switch_cpus1.iq.FU_type_0::SimdShift            0      0.00%     11.34% # Type of FU issued
system.switch_cpus1.iq.FU_type_0::SimdShiftAcc            0      0.00%     11.34% # Type of FU issued
system.switch_cpus1.iq.FU_type_0::SimdDiv            0      0.00%     11.34% # Type of FU issued
system.switch_cpus1.iq.FU_type_0::SimdSqrt            0      0.00%     11.34% # Type of FU issued
system.switch_cpus1.iq.FU_type_0::SimdFloatAdd     77245006     21.69%     33.03% # Type of FU issued
system.switch_cpus1.iq.FU_type_0::SimdFloatAlu            0      0.00%     33.03% # Type of FU issued
system.switch_cpus1.iq.FU_type_0::SimdFloatCmp            0      0.00%     33.03% # Type of FU issued
system.switch_cpus1.iq.FU_type_0::SimdFloatCvt            0      0.00%     33.03% # Type of FU issued
system.switch_cpus1.iq.FU_type_0::SimdFloatDiv      1487676      0.42%     33.45% # Type of FU issued
system.switch_cpus1.iq.FU_type_0::SimdFloatMisc            0      0.00%     33.45% # Type of FU issued
system.switch_cpus1.iq.FU_type_0::SimdFloatMult     46912489     13.18%     46.62% # Type of FU issued
system.switch_cpus1.iq.FU_type_0::SimdFloatMultAcc            0      0.00%     46.62% # Type of FU issued
system.switch_cpus1.iq.FU_type_0::SimdFloatSqrt            0      0.00%     46.62% # Type of FU issued
system.switch_cpus1.iq.FU_type_0::SimdReduceAdd            0      0.00%     46.62% # Type of FU issued
system.switch_cpus1.iq.FU_type_0::SimdReduceAlu            0      0.00%     46.62% # Type of FU issued
system.switch_cpus1.iq.FU_type_0::SimdReduceCmp            0      0.00%     46.62% # Type of FU issued
system.switch_cpus1.iq.FU_type_0::SimdFloatReduceAdd            0      0.00%     46.62% # Type of FU issued
system.switch_cpus1.iq.FU_type_0::SimdFloatReduceCmp            0      0.00%     46.62% # Type of FU issued
system.switch_cpus1.iq.FU_type_0::SimdAes            0      0.00%     46.62% # Type of FU issued
system.switch_cpus1.iq.FU_type_0::SimdAesMix            0      0.00%     46.62% # Type of FU issued
system.switch_cpus1.iq.FU_type_0::SimdSha1Hash            0      0.00%     46.62% # Type of FU issued
system.switch_cpus1.iq.FU_type_0::SimdSha1Hash2            0      0.00%     46.62% # Type of FU issued
system.switch_cpus1.iq.FU_type_0::SimdSha256Hash            0      0.00%     46.62% # Type of FU issued
system.switch_cpus1.iq.FU_type_0::SimdSha256Hash2            0      0.00%     46.62% # Type of FU issued
system.switch_cpus1.iq.FU_type_0::SimdShaSigma2            0      0.00%     46.62% # Type of FU issued
system.switch_cpus1.iq.FU_type_0::SimdShaSigma3            0      0.00%     46.62% # Type of FU issued
system.switch_cpus1.iq.FU_type_0::SimdPredAlu            0      0.00%     46.62% # Type of FU issued
system.switch_cpus1.iq.FU_type_0::MemRead     52757880     14.82%     61.44% # Type of FU issued
system.switch_cpus1.iq.FU_type_0::MemWrite       129147      0.04%     61.48% # Type of FU issued
system.switch_cpus1.iq.FU_type_0::FloatMemRead    105992957     29.77%     91.25% # Type of FU issued
system.switch_cpus1.iq.FU_type_0::FloatMemWrite     31166951      8.75%    100.00% # Type of FU issued
system.switch_cpus1.iq.FU_type_0::IprAccess            0      0.00%    100.00% # Type of FU issued
system.switch_cpus1.iq.FU_type_0::InstPrefetch            0      0.00%    100.00% # Type of FU issued
system.switch_cpus1.iq.FU_type_0::total     356050988                       # Type of FU issued
[...]
system.switch_cpus3.commit.numCommittedDist::mean     0.251577                       # Number of insts commited each cycle
system.switch_cpus3.commit.numCommittedDist::stdev     1.257210                       # Number of insts commited each cycle
system.switch_cpus3.commit.numCommittedDist::underflows            0      0.00%      0.00% # Number of insts commited each cycle
system.switch_cpus3.commit.numCommittedDist::0   1030992591     94.26%     94.26% # Number of insts commited each cycle
system.switch_cpus3.commit.numCommittedDist::1     18742684      1.71%     95.97% # Number of insts commited each cycle
system.switch_cpus3.commit.numCommittedDist::2      7985044      0.73%     96.70% # Number of insts commited each cycle
system.switch_cpus3.commit.numCommittedDist::3      5605761      0.51%     97.21% # Number of insts commited each cycle
system.switch_cpus3.commit.numCommittedDist::4      3004398      0.27%     97.49% # Number of insts commited each cycle
system.switch_cpus3.commit.numCommittedDist::5      1641494      0.15%     97.64% # Number of insts commited each cycle
system.switch_cpus3.commit.numCommittedDist::6      1164436      0.11%     97.75% # Number of insts commited each cycle
system.switch_cpus3.commit.numCommittedDist::7       794143      0.07%     97.82% # Number of insts commited each cycle
system.switch_cpus3.commit.numCommittedDist::8     23858910      2.18%    100.00% # Number of insts commited each cycle
system.switch_cpus3.commit.numCommittedDist::overflows            0      0.00%    100.00% # Number of insts commited each cycle
system.switch_cpus3.commit.numCommittedDist::min_value            0                       # Number of insts commited each cycle
system.switch_cpus3.commit.numCommittedDist::max_value            8                       # Number of insts commited each cycle
system.switch_cpus3.commit.numCommittedDist::total   1093789461                       # Number of insts commited each cycle
system.switch_cpus3.commit.instsCommitted    249996831                       # Number of instructions committed
system.switch_cpus3.commit.opsCommitted     275172014                       # Number of ops (including micro ops) committed
system.switch_cpus3.commit.memRefs          109118082                       # Number of memory references committed
system.switch_cpus3.commit.loads             77816115                       # Number of loads committed
system.switch_cpus3.commit.amos                     0                       # Number of atomic instructions committed
system.switch_cpus3.commit.membars                  0                       # Number of memory barriers committed
system.switch_cpus3.commit.branches           1661393                       # Number of branches committed
system.switch_cpus3.commit.vector                   0                       # Number of committed Vector instructions.
system.switch_cpus3.commit.floating         237252967                       # Number of committed floating point instructions.
system.switch_cpus3.commit.integer          126084808                       # Number of committed integer instructions.
system.switch_cpus3.commit.functionCalls            2                       # Number of function calls committed.
system.switch_cpus3.commit.committedInstType_0::No_OpClass            0      0.00%      0.00% # Class of committed instruction
system.switch_cpus3.commit.committedInstType_0::IntAlu     40322899     14.65%     14.65% # Class of committed instruction
system.switch_cpus3.commit.committedInstType_0::IntMult            0      0.00%     14.65% # Class of committed instruction
system.switch_cpus3.commit.committedInstType_0::IntDiv            0      0.00%     14.65% # Class of committed instruction
system.switch_cpus3.commit.committedInstType_0::FloatAdd            0      0.00%     14.65% # Class of committed instruction
system.switch_cpus3.commit.committedInstType_0::FloatCmp            0      0.00%     14.65% # Class of committed instruction
system.switch_cpus3.commit.committedInstType_0::FloatCvt            0      0.00%     14.65% # Class of committed instruction
system.switch_cpus3.commit.committedInstType_0::FloatMult            0      0.00%     14.65% # Class of committed instruction
system.switch_cpus3.commit.committedInstType_0::FloatMultAcc            0      0.00%     14.65% # Class of committed instruction
system.switch_cpus3.commit.committedInstType_0::FloatDiv            0      0.00%     14.65% # Class of committed instruction
system.switch_cpus3.commit.committedInstType_0::FloatMisc            0      0.00%     14.65% # Class of committed instruction
system.switch_cpus3.commit.committedInstType_0::FloatSqrt            0      0.00%     14.65% # Class of committed instruction
system.switch_cpus3.commit.committedInstType_0::SimdAdd            0      0.00%     14.65% # Class of committed instruction
system.switch_cpus3.commit.committedInstType_0::SimdAddAcc            0      0.00%     14.65% # Class of committed instruction
system.switch_cpus3.commit.committedInstType_0::SimdAlu        36864      0.01%     14.67% # Class of committed instruction
system.switch_cpus3.commit.committedInstType_0::SimdCmp            0      0.00%     14.67% # Class of committed instruction
system.switch_cpus3.commit.committedInstType_0::SimdCvt            0      0.00%     14.67% # Class of committed instruction
system.switch_cpus3.commit.committedInstType_0::SimdMisc            0      0.00%     14.67% # Class of committed instruction
system.switch_cpus3.commit.committedInstType_0::SimdMult            0      0.00%     14.67% # Class of committed instruction
system.switch_cpus3.commit.committedInstType_0::SimdMultAcc            0      0.00%     14.67% # Class of committed instruction
system.switch_cpus3.commit.committedInstType_0::SimdShift            0      0.00%     14.67% # Class of committed instruction
system.switch_cpus3.commit.committedInstType_0::SimdShiftAcc            0      0.00%     14.67% # Class of committed instruction
system.switch_cpus3.commit.committedInstType_0::SimdDiv            0      0.00%     14.67% # Class of committed instruction
system.switch_cpus3.commit.committedInstType_0::SimdSqrt            0      0.00%     14.67% # Class of committed instruction
system.switch_cpus3.commit.committedInstType_0::SimdFloatAdd     77272287     28.08%     42.75% # Class of committed instruction
system.switch_cpus3.commit.committedInstType_0::SimdFloatAlu            0      0.00%     42.75% # Class of committed instruction
system.switch_cpus3.commit.committedInstType_0::SimdFloatCmp            0      0.00%     42.75% # Class of committed instruction
system.switch_cpus3.commit.committedInstType_0::SimdFloatCvt            0      0.00%     42.75% # Class of committed instruction
system.switch_cpus3.commit.committedInstType_0::SimdFloatDiv      1488369      0.54%     43.29% # Class of committed instruction
system.switch_cpus3.commit.committedInstType_0::SimdFloatMisc            0      0.00%     43.29% # Class of committed instruction
system.switch_cpus3.commit.committedInstType_0::SimdFloatMult     46933513     17.06%     60.35% # Class of committed instruction
system.switch_cpus3.commit.committedInstType_0::SimdFloatMultAcc            0      0.00%     60.35% # Class of committed instruction
system.switch_cpus3.commit.committedInstType_0::SimdFloatSqrt            0      0.00%     60.35% # Class of committed instruction
system.switch_cpus3.commit.committedInstType_0::SimdReduceAdd            0      0.00%     60.35% # Class of committed instruction
system.switch_cpus3.commit.committedInstType_0::SimdReduceAlu            0      0.00%     60.35% # Class of committed instruction
system.switch_cpus3.commit.committedInstType_0::SimdReduceCmp            0      0.00%     60.35% # Class of committed instruction
system.switch_cpus3.commit.committedInstType_0::SimdFloatReduceAdd            0      0.00%     60.35% # Class of committed instruction
system.switch_cpus3.commit.committedInstType_0::SimdFloatReduceCmp            0      0.00%     60.35% # Class of committed instruction
system.switch_cpus3.commit.committedInstType_0::SimdAes            0      0.00%     60.35% # Class of committed instruction
system.switch_cpus3.commit.committedInstType_0::SimdAesMix            0      0.00%     60.35% # Class of committed instruction
system.switch_cpus3.commit.committedInstType_0::SimdSha1Hash            0      0.00%     60.35% # Class of committed instruction
system.switch_cpus3.commit.committedInstType_0::SimdSha1Hash2            0      0.00%     60.35% # Class of committed instruction
system.switch_cpus3.commit.committedInstType_0::SimdSha256Hash            0      0.00%     60.35% # Class of committed instruction
system.switch_cpus3.commit.committedInstType_0::SimdSha256Hash2            0      0.00%     60.35% # Class of committed instruction
system.switch_cpus3.commit.committedInstType_0::SimdShaSigma2            0      0.00%     60.35% # Class of committed instruction
system.switch_cpus3.commit.committedInstType_0::SimdShaSigma3            0      0.00%     60.35% # Class of committed instruction
system.switch_cpus3.commit.committedInstType_0::SimdPredAlu            0      0.00%     60.35% # Class of committed instruction
system.switch_cpus3.commit.committedInstType_0::MemRead     20823293      7.57%     67.91% # Class of committed instruction
system.switch_cpus3.commit.committedInstType_0::MemWrite       129028      0.05%     67.96% # Class of committed instruction
system.switch_cpus3.commit.committedInstType_0::FloatMemRead     56992822     20.71%     88.67% # Class of committed instruction
system.switch_cpus3.commit.committedInstType_0::FloatMemWrite     31172939     11.33%    100.00% # Class of committed instruction
system.switch_cpus3.commit.committedInstType_0::IprAccess            0      0.00%    100.00% # Class of committed instruction
system.switch_cpus3.commit.committedInstType_0::InstPrefetch            0      0.00%    100.00% # Class of committed instruction
system.switch_cpus3.commit.committedInstType_0::total    275172014                       # Class of committed instruction
system.switch_cpus3.commit.commitEligibleSamples     23858910                       # number cycles where commit BW limit reached
system.switch_cpus3.decode.idleCycles         5103626                       # Number of cycles decode is idle
system.switch_cpus3.decode.blockedCycles   1054039157                       # Number of cycles decode is blocked
system.switch_cpus3.decode.runCycles         23055285                       # Number of cycles decode is running
system.switch_cpus3.decode.unblockCycles     11625309                       # Number of cycles decode is unblocking
system.switch_cpus3.decode.squashCycles          7501                       # Number of cycles decode is squashing
system.switch_cpus3.decode.branchResolved       608552                       # Number of times decode resolved a  branch
system.switch_cpus3.decode.branchMispred            5                       # Number of times decode detected a branch misprediction
system.switch_cpus3.decode.decodedInsts     275509292                       # Number of instructions handled by decode
system.switch_cpus3.decode.squashedInsts           25                       # Number of squashed instructions handled by decode
system.switch_cpus3.dtb.rdAccesses           77990841                       # TLB accesses on read requests
system.switch_cpus3.dtb.wrAccesses           31309734                       # TLB accesses on write requests
system.switch_cpus3.dtb.rdMisses                83149                       # TLB misses on read requests
system.switch_cpus3.dtb.wrMisses                 5069                       # TLB misses on write requests
system.switch_cpus3.dtb.walker.power_state.pwrStateResidencyTicks::UNDEFINED 14083301400201                       # Cumulative time (in ticks) in various power states
system.switch_cpus3.fetch.icacheStallCycles        14463                       # Number of cycles fetch is stalled on an Icache miss
system.switch_cpus3.fetch.insts             250616091                       # Number of instructions fetch has processed
system.switch_cpus3.fetch.branches            1667998                       # Number of branches that fetch encountered
system.switch_cpus3.fetch.predictedBranches       614725                       # Number of branches that fetch has predicted taken
system.switch_cpus3.fetch.cycles           1093808945                       # Number of cycles fetch has run and was not squashing or blocked
system.switch_cpus3.fetch.squashCycles          15012                       # Number of cycles fetch has spent squashing
system.switch_cpus3.fetch.cacheLines         21912569                       # Number of cache lines fetched
system.switch_cpus3.fetch.icacheSquashes            6                       # Number of outstanding Icache misses that were squashed
system.switch_cpus3.fetch.nisnDist::samples   1093830914                       # Number of instructions fetched each cycle (Total)
system.switch_cpus3.fetch.nisnDist::mean     0.252184                       # Number of instructions fetched each cycle (Total)
system.switch_cpus3.fetch.nisnDist::stdev     1.285212                       # Number of instructions fetched each cycle (Total)
system.switch_cpus3.fetch.nisnDist::underflows            0      0.00%      0.00% # Number of instructions fetched each cycle (Total)
system.switch_cpus3.fetch.nisnDist::0      1047243892     95.74%     95.74% # Number of instructions fetched each cycle (Total)
system.switch_cpus3.fetch.nisnDist::1         2899249      0.27%     96.01% # Number of instructions fetched each cycle (Total)
system.switch_cpus3.fetch.nisnDist::2         2003064      0.18%     96.19% # Number of instructions fetched each cycle (Total)
system.switch_cpus3.fetch.nisnDist::3         2925676      0.27%     96.46% # Number of instructions fetched each cycle (Total)
system.switch_cpus3.fetch.nisnDist::4         5334778      0.49%     96.94% # Number of instructions fetched each cycle (Total)
system.switch_cpus3.fetch.nisnDist::5         5944399      0.54%     97.49% # Number of instructions fetched each cycle (Total)
system.switch_cpus3.fetch.nisnDist::6         3714631      0.34%     97.83% # Number of instructions fetched each cycle (Total)
system.switch_cpus3.fetch.nisnDist::7         3305907      0.30%     98.13% # Number of instructions fetched each cycle (Total)
system.switch_cpus3.fetch.nisnDist::8        20459318      1.87%    100.00% # Number of instructions fetched each cycle (Total)
system.switch_cpus3.fetch.nisnDist::overflows            0      0.00%    100.00% # Number of instructions fetched each cycle (Total)
system.switch_cpus3.fetch.nisnDist::min_value            0                       # Number of instructions fetched each cycle (Total)
system.switch_cpus3.fetch.nisnDist::max_value            8                       # Number of instructions fetched each cycle (Total)
system.switch_cpus3.fetch.nisnDist::total   1093830914                       # Number of instructions fetched each cycle (Total)
system.switch_cpus3.fetch.branchRate         0.001525                       # Number of branch fetches per cycle
system.switch_cpus3.fetch.rate               0.229116                       # Number of inst fetches per cycle
system.switch_cpus3.itb.rdAccesses                  0                       # TLB accesses on read requests
system.switch_cpus3.itb.wrAccesses           21912569                       # TLB accesses on write requests
system.switch_cpus3.itb.rdMisses                    0                       # TLB misses on read requests
system.switch_cpus3.itb.wrMisses                    4                       # TLB misses on write requests
system.switch_cpus3.itb.walker.power_state.pwrStateResidencyTicks::UNDEFINED 14083301400201                       # Cumulative time (in ticks) in various power states
system.switch_cpus3.lsq0.forwLoads           12484529                       # Number of loads that had data forwarded from stores
system.switch_cpus3.lsq0.squashedLoads         176495                       # Number of loads squashed
system.switch_cpus3.lsq0.ignoredResponses           14                       # Number of memory responses ignored because the instruction is squashed
system.switch_cpus3.lsq0.memOrderViolation         2167                       # Number of memory ordering violations
system.switch_cpus3.lsq0.squashedStores         64451                       # Number of stores squashed
system.switch_cpus3.lsq0.rescheduledLoads            0                       # Number of loads that were rescheduled
system.switch_cpus3.lsq0.blockedByCache       5230616                       # Number of times an access to memory failed due to the cache being blocked
system.switch_cpus3.power_state.pwrStateResidencyTicks::OFF 364248804915                       # Cumulative time (in ticks) in various power states
system.switch_cpus3.rename.squashCycles          7501                       # Number of cycles rename is squashing
system.switch_cpus3.rename.idleCycles        10174900                       # Number of cycles rename is idle
system.switch_cpus3.rename.blockCycles      513928403                       # Number of cycles rename is blocking
system.switch_cpus3.rename.serializeStallCycles            0                       # count of cycles rename stalledfor serializing inst
system.switch_cpus3.rename.runCycles         29132678                       # Number of cycles rename is running
system.switch_cpus3.rename.unblockCycles    540587396                       # Number of cycles rename is unblocking
system.switch_cpus3.rename.renamedInsts     275471048                       # Number of instructions processed by rename
system.switch_cpus3.rename.IQFullEvents      26674751                       # Number of times rename has blocked due to IQ full
system.switch_cpus3.rename.LQFullEvents     374225889                       # Number of times rename has blocked due to LQ full
system.switch_cpus3.rename.SQFullEvents     156418391                       # Number of times rename has blocked due to SQ full
system.switch_cpus3.rename.renamedOperands    246868112                       # Number of destination operands rename has renamed
system.switch_cpus3.rename.lookups          837288385                       # Number of register rename lookups that rename has made
system.switch_cpus3.rename.intLookups       254775866                       # Number of integer rename lookups
system.switch_cpus3.rename.fpLookups        455211104                       # Number of floating rename lookups
system.switch_cpus3.rename.committedMaps    246622968                       # Number of HB maps that are committed
system.switch_cpus3.rename.undoneMaps          245059                       # Number of HB maps that are undone due to squashing
system.switch_cpus3.rename.serializing              0                       # count of serializing insts renamed
system.switch_cpus3.rename.tempSerializing            0                       # count of temporary serializing insts renamed
system.switch_cpus3.rename.skidInsts         66552053                       # count of insts added to the skid buffer
system.switch_cpus3.rob.reads              1345393551                       # The number of ROB reads
system.switch_cpus3.rob.writes              550967546                       # The number of ROB writes
system.switch_cpus3.thread0.numInsts        249996831                       # Number of Instructions committed
system.switch_cpus3.thread0.numOps          275172014                       # Number of Ops committed
system.switch_cpus3.thread0.numMemRefs              0                       # Number of Memory References
system.voltage_domain.voltage                       1                       # Voltage in Volts

---------- End Simulation Statistics   ----------
