Command line:
./runscript_pride.sh mix4 RFM10.BR2.4C 4 2017 --rh_defense --rh_mitigation=RFM --rh_rfm_per_trefi=10 --rh_rfm_blast_radius=2 --rh_rfm_maxacts_per_trefi=79
Global frequency set at 1000000000000 ticks per second
RFM details - rfm_act_threshold: 7, blast_radius: 2, delay_per_rfm: 175000 ps. sample_rate: 0.125000
RH Defense config: RFM, Bus Delay: 0, rfms_per_trefi: 10, rfm_act_threshold: 7, blast_radius: 2,rfm_delay_per_act: 45000 ps.
DRAM config: RowsPerBank: 65536, BanksPerRank: 32, RanksPerChannel: 1
warn: Sockets disabled, not accepting gdb connections
warn: CoherentXBar system.cpu0.mmucache.mmubus has no snooping ports attached!
warn: CoherentXBar system.cpu1.mmucache.mmubus has no snooping ports attached!
warn: CoherentXBar system.cpu2.mmucache.mmubus has no snooping ports attached!
warn: CoherentXBar system.cpu3.mmucache.mmubus has no snooping ports attached!
warn: Checkpoints for file descriptors currently do not work.
warn: Checkpoints for file descriptors currently do not work.
warn: Checkpoints for file descriptors currently do not work.
warn: Checkpoints for file descriptors currently do not work.
gem5 Simulator System.  http://gem5.org
gem5 is copyrighted software; use the --copyright option for details.

gem5 version 20.1.0.5
gem5 compiled Jul 12 2024 12:42:38
gem5 started Aug  1 2024 19:12:15
gem5 executing on a07dda8b130c, pid 251474
command line: /home/user/PrIDE/performance/gem5/build/X86/gem5.opt --outdir=/home/user/PrIDE/performance/gem5/stats/pride_multiprogram_16GBmem_250Mn.SPEC2017.C4/RFM10.BR2.4C/mix4 /home/user/PrIDE/performance/gem5/configs/example/se_rq_spec_config_multicore.py --redirects /lib64=/home/utils/gcc-6.2.0/lib64 --benchmark=mix4 --benchmark_stdout=/home/user/PrIDE/performance/gem5/stats/pride_multiprogram_16GBmem_250Mn.SPEC2017.C4/RFM10.BR2.4C/mix4/mix4.out --benchmark_stderr=/home/user/PrIDE/performance/gem5/stats/pride_multiprogram_16GBmem_250Mn.SPEC2017.C4/RFM10.BR2.4C/mix4/mix4.err --spec-version=2017 --rh_defense --rh_mitigation=RFM --rh_rfm_per_trefi=10 --rh_rfm_blast_radius=2 --rh_rfm_maxacts_per_trefi=79 --num-cpus=4 --mem-size=16GB --mem-type=DDR5_2400_32x4 --mem-ranks=1 --mem-channels=1 --checkpoint-dir=/home/user/PrIDE/performance/gem5/cpts-DDR5/multiprogram_16GBmem_25Bn.SPEC2017.C4/mix4-1-ref-x86 --checkpoint-restore=25000000000 --at-instruction --cpu-type DerivO3CPU --caches --l2cache --l1d_size=32kB --l1i_size=32kB --l2_size=256kB --l3_size=4MB --l1d_assoc=8 --l1i_assoc=8 --l2_assoc=16 --l3_assoc=16 --cpu-clock=3GHz --sys-clock=3GHz --maxinsts=250000000 --prog-interval=300Hz

info: Standard input is not a terminal, disabling listeners.
Benchmark- 0   namd
Selected benchmark
--> namd
CMD: ['/opt/spec2017/benchspec/CPU/508.namd_r/run/run_base_refrate_gem5_se-m64.0000/namd_r_base.gem5_se-m64', '--input', '/opt/spec2017/benchspec/CPU/508.namd_r/run/run_base_refrate_gem5_se-m64.0000/apoa1.input', '--output', '/opt/spec2017/benchspec/CPU/508.namd_r/run/run_base_refrate_gem5_se-m64.0000/apoa1.ref.output', '--iterations', '65']
CWD: /opt/spec2017/benchspec/CPU/508.namd_r/run/run_base_refrate_gem5_se-m64.0000/
Process stdout file: /home/user/PrIDE/performance/gem5/stats/pride_multiprogram_16GBmem_250Mn.SPEC2017.C4/RFM10.BR2.4C/mix4/mix4.out_0
Process stderr file: /home/user/PrIDE/performance/gem5/stats/pride_multiprogram_16GBmem_250Mn.SPEC2017.C4/RFM10.BR2.4C/mix4/mix4.err_0
Benchmark- 1   deepsjeng
Selected benchmark
--> deepsjeng
CMD: ['/opt/spec2017/benchspec/CPU/531.deepsjeng_r/run/run_base_refrate_gem5_se-m64.0000/deepsjeng_r_base.gem5_se-m64', '/opt/spec2017/benchspec/CPU/531.deepsjeng_r/run/run_base_refrate_gem5_se-m64.0000/ref.txt']
CWD: /opt/spec2017/benchspec/CPU/531.deepsjeng_r/run/run_base_refrate_gem5_se-m64.0000/
Process stdout file: /home/user/PrIDE/performance/gem5/stats/pride_multiprogram_16GBmem_250Mn.SPEC2017.C4/RFM10.BR2.4C/mix4/mix4.out_1
Process stderr file: /home/user/PrIDE/performance/gem5/stats/pride_multiprogram_16GBmem_250Mn.SPEC2017.C4/RFM10.BR2.4C/mix4/mix4.err_1
Benchmark- 2   cactuBSSN
Selected benchmark
--> cactuBSSN
CMD: ['/opt/spec2017/benchspec/CPU/507.cactuBSSN_r/run/run_base_refrate_gem5_se-m64.0000/cactusBSSN_r_base.gem5_se-m64', '/opt/spec2017/benchspec/CPU/507.cactuBSSN_r/run/run_base_refrate_gem5_se-m64.0000/spec_ref.par']
CWD: /opt/spec2017/benchspec/CPU/507.cactuBSSN_r/run/run_base_refrate_gem5_se-m64.0000/
Process stdout file: /home/user/PrIDE/performance/gem5/stats/pride_multiprogram_16GBmem_250Mn.SPEC2017.C4/RFM10.BR2.4C/mix4/mix4.out_2
Process stderr file: /home/user/PrIDE/performance/gem5/stats/pride_multiprogram_16GBmem_250Mn.SPEC2017.C4/RFM10.BR2.4C/mix4/mix4.err_2
Benchmark- 3   leela
Selected benchmark
--> leela
CMD: ['/opt/spec2017/benchspec/CPU/541.leela_r/run/run_base_refrate_gem5_se-m64.0000/leela_r_base.gem5_se-m64', '/opt/spec2017/benchspec/CPU/541.leela_r/run/run_base_refrate_gem5_se-m64.0000/ref.sgf']
CWD: /opt/spec2017/benchspec/CPU/541.leela_r/run/run_base_refrate_gem5_se-m64.0000/
Process stdout file: /home/user/PrIDE/performance/gem5/stats/pride_multiprogram_16GBmem_250Mn.SPEC2017.C4/RFM10.BR2.4C/mix4/mix4.out_3
Process stderr file: /home/user/PrIDE/performance/gem5/stats/pride_multiprogram_16GBmem_250Mn.SPEC2017.C4/RFM10.BR2.4C/mix4/mix4.err_3
Workload-0: 
['/opt/spec2017/benchspec/CPU/508.namd_r/run/run_base_refrate_gem5_se-m64.0000/namd_r_base.gem5_se-m64', '--input', '/opt/spec2017/benchspec/CPU/508.namd_r/run/run_base_refrate_gem5_se-m64.0000/apoa1.input', '--output', '/opt/spec2017/benchspec/CPU/508.namd_r/run/run_base_refrate_gem5_se-m64.0000/apoa1.ref.output', '--iterations', '65']
Workload-1: 
['/opt/spec2017/benchspec/CPU/531.deepsjeng_r/run/run_base_refrate_gem5_se-m64.0000/deepsjeng_r_base.gem5_se-m64', '/opt/spec2017/benchspec/CPU/531.deepsjeng_r/run/run_base_refrate_gem5_se-m64.0000/ref.txt']
Workload-2: 
['/opt/spec2017/benchspec/CPU/507.cactuBSSN_r/run/run_base_refrate_gem5_se-m64.0000/cactusBSSN_r_base.gem5_se-m64', '/opt/spec2017/benchspec/CPU/507.cactuBSSN_r/run/run_base_refrate_gem5_se-m64.0000/spec_ref.par']
Workload-3: 
['/opt/spec2017/benchspec/CPU/541.leela_r/run/run_base_refrate_gem5_se-m64.0000/leela_r_base.gem5_se-m64', '/opt/spec2017/benchspec/CPU/541.leela_r/run/run_base_refrate_gem5_se-m64.0000/ref.sgf']
defense_enable:  True  detector:  MG  mitigation:  RFM  threshold:  800
mg_entries:  1700
rfm_maxacts_per_trefi:  79 rfm_per_trefi:  10 rfm_blast_radius:  2
Switch at curTick count:10000
warn: membus.master is deprecated. `master` is now called `mem_side_ports`
warn: No dot file generated. Please install pydot to generate the dot file and pdf.
info: Entering event queue @ 13945158484731.  Starting simulation...
warn: PowerState: Already in the requested power state, request ignored
Switched CPUS @ tick 13945158494731
switching cpus
**** REAL SIMULATION ****
info: Entering event queue @ 13945158494731.  Starting simulation...
warn: MOVNTDQ: Ignoring non-temporal hint, modeling as cacheable!
13948491818064: Event_285: system.switch_cpus3 progress event, total committed:18786003, progress insts committed: 18786003, IPC: 01.87672
13948491818064: Event_284: system.switch_cpus2 progress event, total committed:7293164, progress insts committed: 7293164, IPC: 0.728587
13948491818064: Event_283: system.switch_cpus1 progress event, total committed:21639135, progress insts committed: 21639135, IPC: 02.16175
13948491818064: Event_282: system.switch_cpus0 progress event, total committed:33687101, progress insts committed: 33687101, IPC: 03.36534
13951825151397: Event_282: system.switch_cpus0 progress event, total committed:68393878, progress insts committed: 34706777, IPC: 03.46721
13951825151397: Event_283: system.switch_cpus1 progress event, total committed:44533672, progress insts committed: 22894537, IPC: 02.28716
13951825151397: Event_284: system.switch_cpus2 progress event, total committed:14773716, progress insts committed: 7480552, IPC: 0.747307
13951825151397: Event_285: system.switch_cpus3 progress event, total committed:38712318, progress insts committed: 19926315, IPC: 01.99064
13955158484730: Event_285: system.switch_cpus3 progress event, total committed:58688093, progress insts committed: 19975775, IPC: 01.99558
13955158484730: Event_284: system.switch_cpus2 progress event, total committed:22235940, progress insts committed: 7462224, IPC: 0.745476
13955158484730: Event_283: system.switch_cpus1 progress event, total committed:66922831, progress insts committed: 22389159, IPC: 02.23668
13955158484730: Event_282: system.switch_cpus0 progress event, total committed:102709900, progress insts committed: 34316022, IPC: 03.42817
13958491818063: Event_282: system.switch_cpus0 progress event, total committed:137794323, progress insts committed: 35084423, IPC: 03.50493
13958491818063: Event_283: system.switch_cpus1 progress event, total committed:89659065, progress insts committed: 22736234, IPC: 02.27135
13958491818063: Event_284: system.switch_cpus2 progress event, total committed:29658201, progress insts committed: 7422261, IPC: 0.741484
13958491818063: Event_285: system.switch_cpus3 progress event, total committed:78640803, progress insts committed: 19952710, IPC: 01.99328
13961825151396: Event_285: system.switch_cpus3 progress event, total committed:98639447, progress insts committed: 19998644, IPC: 01.99786
13961825151396: Event_284: system.switch_cpus2 progress event, total committed:37084184, progress insts committed: 7425983, IPC: 0.741856
13961825151396: Event_283: system.switch_cpus1 progress event, total committed:112514787, progress insts committed: 22855722, IPC: 02.28329
13961825151396: Event_282: system.switch_cpus0 progress event, total committed:172901656, progress insts committed: 35107333, IPC: 03.50722
13965158484729: Event_282: system.switch_cpus0 progress event, total committed:207346444, progress insts committed: 34444788, IPC: 03.44103
13965158484729: Event_283: system.switch_cpus1 progress event, total committed:134903760, progress insts committed: 22388973, IPC: 02.23666
13965158484729: Event_284: system.switch_cpus2 progress event, total committed:44509735, progress insts committed: 7425551, IPC: 0.741813
13965158484729: Event_285: system.switch_cpus3 progress event, total committed:118666379, progress insts committed: 20026932, IPC: 02.00069
13968491818062: Event_285: system.switch_cpus3 progress event, total committed:138714205, progress insts committed: 20047826, IPC: 02.00278
13968491818062: Event_284: system.switch_cpus2 progress event, total committed:51962101, progress insts committed: 7452366, IPC: 0.744491
13968491818062: Event_283: system.switch_cpus1 progress event, total committed:156820449, progress insts committed: 21916689, IPC: 02.18948
13968491818062: Event_282: system.switch_cpus0 progress event, total committed:242155812, progress insts committed: 34809368, IPC: 03.47746
13971825151395: Event_282: system.switch_cpus0 progress event, total committed:276516450, progress insts committed: 34360638, IPC: 03.43263
13971825151395: Event_283: system.switch_cpus1 progress event, total committed:178702797, progress insts committed: 21882348, IPC: 02.18605
13971825151395: Event_284: system.switch_cpus2 progress event, total committed:59335072, progress insts committed: 7372971, IPC: 00.73656
13971825151395: Event_285: system.switch_cpus3 progress event, total committed:158763982, progress insts committed: 20049777, IPC: 02.00297
Exiting @ tick 13973763713868 because a thread reached the max instruction count
