Command line:
./runscript_pride.sh lbm AE.BASELINE.1C 1 2017
Global frequency set at 1000000000000 ticks per second
DRAM config: RowsPerBank: 65536, BanksPerRank: 32, RanksPerChannel: 1
warn: Sockets disabled, not accepting gdb connections
warn: CoherentXBar system.cpu.mmucache.mmubus has no snooping ports attached!
warn: Checkpoints for file descriptors currently do not work.
gem5 Simulator System.  http://gem5.org
gem5 is copyrighted software; use the --copyright option for details.

gem5 version 20.1.0.5
gem5 compiled Jul 12 2024 12:42:38
gem5 started Jul 31 2024 03:21:18
gem5 executing on a07dda8b130c, pid 225558
command line: /home/user/PrIDE/performance/gem5/build/X86/gem5.opt --outdir=/home/user/PrIDE/performance/gem5/stats/pride_multiprogram_16GBmem_250Mn.SPEC2017.C1/AE.BASELINE.1C/lbm /home/user/PrIDE/performance/gem5/configs/example/se_rq_spec_config_multicore.py --redirects /lib64=/home/utils/gcc-6.2.0/lib64 --benchmark=lbm --benchmark_stdout=/home/user/PrIDE/performance/gem5/stats/pride_multiprogram_16GBmem_250Mn.SPEC2017.C1/AE.BASELINE.1C/lbm/lbm.out --benchmark_stderr=/home/user/PrIDE/performance/gem5/stats/pride_multiprogram_16GBmem_250Mn.SPEC2017.C1/AE.BASELINE.1C/lbm/lbm.err --spec-version=2017 --num-cpus=1 --mem-size=16GB --mem-type=DDR5_2400_32x4 --mem-ranks=1 --mem-channels=1 --checkpoint-dir=/home/user/PrIDE/performance/gem5/cpts-DDR5/multiprogram_16GBmem_25Bn.SPEC2017.C1/lbm-1-ref-x86 --checkpoint-restore=25000000000 --at-instruction --cpu-type DerivO3CPU --caches --l2cache --l1d_size=32kB --l1i_size=32kB --l2_size=256kB --l3_size=4MB --l1d_assoc=8 --l1i_assoc=8 --l2_assoc=16 --l3_assoc=16 --cpu-clock=3GHz --sys-clock=3GHz --maxinsts=250000000 --prog-interval=300Hz

info: Standard input is not a terminal, disabling listeners.
Benchmark- 0   lbm
Selected benchmark
--> lbm
CMD: ['/opt/spec2017/benchspec/CPU/519.lbm_r/run/run_base_refrate_gem5_se-m64.0000/lbm_r_base.gem5_se-m64', '3000', 'reference.dat', '0', '0', '/opt/spec2017/benchspec/CPU/519.lbm_r/run/run_base_refrate_gem5_se-m64.0000/100_100_130_ldc.of']
CWD: /opt/spec2017/benchspec/CPU/519.lbm_r/run/run_base_refrate_gem5_se-m64.0000/
Process stdout file: /home/user/PrIDE/performance/gem5/stats/pride_multiprogram_16GBmem_250Mn.SPEC2017.C1/AE.BASELINE.1C/lbm/lbm.out_0
Process stderr file: /home/user/PrIDE/performance/gem5/stats/pride_multiprogram_16GBmem_250Mn.SPEC2017.C1/AE.BASELINE.1C/lbm/lbm.err_0
Workload-0: 
['/opt/spec2017/benchspec/CPU/519.lbm_r/run/run_base_refrate_gem5_se-m64.0000/lbm_r_base.gem5_se-m64', '3000', 'reference.dat', '0', '0', '/opt/spec2017/benchspec/CPU/519.lbm_r/run/run_base_refrate_gem5_se-m64.0000/100_100_130_ldc.of']
defense_enable:  False  detector:  MG  mitigation:  RRS  threshold:  800
mg_entries:  1700
rrs_tuples:  3400 rrs_swap_delay:  2740ns rit_acc_delay:  1.25ns
Switch at curTick count:10000
warn: membus.master is deprecated. `master` is now called `mem_side_ports`
warn: No dot file generated. Please install pydot to generate the dot file and pdf.
info: Entering event queue @ 13719052595286.  Starting simulation...
warn: PowerState: Already in the requested power state, request ignored
Switched CPUS @ tick 13719052605286
switching cpus
**** REAL SIMULATION ****
info: Entering event queue @ 13719052605286.  Starting simulation...
13722385928619: Event_93: system.switch_cpus progress event, total committed:10635518, progress insts committed: 10635518, IPC: 01.06249
13725719261952: Event_93: system.switch_cpus progress event, total committed:19707853, progress insts committed: 9072335, IPC: 0.906326
13729052595285: Event_93: system.switch_cpus progress event, total committed:28778884, progress insts committed: 9071031, IPC: 0.906196
13732385928618: Event_93: system.switch_cpus progress event, total committed:37844658, progress insts committed: 9065774, IPC: 0.905671
13735719261951: Event_93: system.switch_cpus progress event, total committed:47313550, progress insts committed: 9468892, IPC: 0.945942
13739052595284: Event_93: system.switch_cpus progress event, total committed:56379639, progress insts committed: 9066089, IPC: 0.905702
13742385928617: Event_93: system.switch_cpus progress event, total committed:65449480, progress insts committed: 9069841, IPC: 0.906077
13745719261950: Event_93: system.switch_cpus progress event, total committed:74519916, progress insts committed: 9070436, IPC: 0.906137
13749052595283: Event_93: system.switch_cpus progress event, total committed:83752388, progress insts committed: 9232472, IPC: 0.922324
13752385928616: Event_93: system.switch_cpus progress event, total committed:93046302, progress insts committed: 9293914, IPC: 0.928462
13755719261949: Event_93: system.switch_cpus progress event, total committed:102119053, progress insts committed: 9072751, IPC: 0.906368
13759052595282: Event_93: system.switch_cpus progress event, total committed:111184292, progress insts committed: 9065239, IPC: 0.905617
13762385928615: Event_93: system.switch_cpus progress event, total committed:120254161, progress insts committed: 9069869, IPC: 00.90608
13765719261948: Event_93: system.switch_cpus progress event, total committed:129707246, progress insts committed: 9453085, IPC: 0.944363
13769052595281: Event_93: system.switch_cpus progress event, total committed:138774389, progress insts committed: 9067143, IPC: 0.905808
13772385928614: Event_93: system.switch_cpus progress event, total committed:147838355, progress insts committed: 9063966, IPC: 00.90549
13775719261947: Event_93: system.switch_cpus progress event, total committed:156910273, progress insts committed: 9071918, IPC: 0.906285
13779052595280: Event_93: system.switch_cpus progress event, total committed:165973096, progress insts committed: 9062823, IPC: 0.905376
13782385928613: Event_93: system.switch_cpus progress event, total committed:170425435, progress insts committed: 4452339, IPC: 0.444789
13785719261946: Event_93: system.switch_cpus progress event, total committed:170702047, progress insts committed: 276612, IPC: 0.0276335
13789052595279: Event_93: system.switch_cpus progress event, total committed:170969709, progress insts committed: 267662, IPC: 0.0267394
13792385928612: Event_93: system.switch_cpus progress event, total committed:171237716, progress insts committed: 268007, IPC: 0.0267739
13795719261945: Event_93: system.switch_cpus progress event, total committed:174608305, progress insts committed: 3370589, IPC: 0.336722
13799052595278: Event_93: system.switch_cpus progress event, total committed:185763130, progress insts committed: 11154825, IPC: 01.11437
13802385928611: Event_93: system.switch_cpus progress event, total committed:196605518, progress insts committed: 10842388, IPC: 01.08315
13805719261944: Event_93: system.switch_cpus progress event, total committed:207929328, progress insts committed: 11323810, IPC: 01.13125
13809052595277: Event_93: system.switch_cpus progress event, total committed:219088279, progress insts committed: 11158951, IPC: 01.11478
13812385928610: Event_93: system.switch_cpus progress event, total committed:229158148, progress insts committed: 10069869, IPC: 01.00598
13815719261943: Event_93: system.switch_cpus progress event, total committed:238538670, progress insts committed: 9380522, IPC: 0.937114
13819052595276: Event_93: system.switch_cpus progress event, total committed:247633697, progress insts committed: 9095027, IPC: 0.908593
13822385928609: Event_93: system.switch_cpus progress event, total committed:255726298, progress insts committed: 8092601, IPC: 0.808451
13825719261942: Event_93: system.switch_cpus progress event, total committed:262638741, progress insts committed: 6912443, IPC: 0.690553
13829052595275: Event_93: system.switch_cpus progress event, total committed:270895226, progress insts committed: 8256485, IPC: 0.824823
Exiting @ tick 13831049715390 because a thread reached the max instruction count
