
---------- Begin Simulation Statistics ----------
final_tick                               13831047340434                       # Number of ticks from beginning of simulation (restored from checkpoints and never reset)
host_inst_rate                                 174121                       # Simulator instruction rate (inst/s)
host_mem_usage                               17020036                       # Number of bytes of host memory used
host_op_rate                                   191655                       # Simulator op (including micro ops) rate (op/s)
host_seconds                                  1435.79                       # Real time elapsed on the host
host_tick_rate                               78002463                       # Simulator tick rate (ticks/s)
sim_freq                                 1000000000000                       # Frequency of simulated ticks
sim_insts                                   250000025                       # Number of instructions simulated
sim_ops                                     275175529                       # Number of ops (including micro ops) simulated
sim_seconds                                  0.111995                       # Number of seconds simulated
sim_ticks                                111994802757                       # Number of ticks simulated
system.cpu.committedInsts                          19                       # Number of instructions committed
system.cpu.committedOps                            21                       # Number of ops (including micro ops) committed
system.cpu.idle_fraction                            0                       # Percentage of idle cycles
system.cpu.l2bus.snoop_filter.hit_multi_requests            0                       # Number of requests hitting in the snoop filter with multiple (>1) holders of the requested data.
system.cpu.l2bus.snoop_filter.hit_multi_snoops            0                       # Number of snoops hitting in the snoop filter with multiple (>1) holders of the requested data.
system.cpu.l2bus.snoop_filter.hit_single_requests      9310878                       # Number of requests hitting in the snoop filter with a single holder of the requested data.
system.cpu.l2bus.snoop_filter.hit_single_snoops          765                       # Number of snoops hitting in the snoop filter with a single holder of the requested data.
system.cpu.l2bus.snoop_filter.tot_requests     18622336                       # Total number of requests made to the snoop filter.
system.cpu.l2bus.snoop_filter.tot_snoops          765                       # Total number of snoops made to the snoop filter.
system.cpu.mmucache.mmubus.snoop_filter.hit_multi_requests            0                       # Number of requests hitting in the snoop filter with multiple (>1) holders of the requested data.
system.cpu.mmucache.mmubus.snoop_filter.hit_multi_snoops            0                       # Number of snoops hitting in the snoop filter with multiple (>1) holders of the requested data.
system.cpu.mmucache.mmubus.snoop_filter.hit_single_requests            0                       # Number of requests hitting in the snoop filter with a single holder of the requested data.
system.cpu.mmucache.mmubus.snoop_filter.hit_single_snoops            0                       # Number of snoops hitting in the snoop filter with a single holder of the requested data.
system.cpu.mmucache.mmubus.snoop_filter.tot_requests            0                       # Total number of requests made to the snoop filter.
system.cpu.mmucache.mmubus.snoop_filter.tot_snoops            0                       # Total number of snoops made to the snoop filter.
system.cpu.not_idle_fraction                        1                       # Percentage of non-idle cycles
system.cpu.numCycles                               31                       # number of cpu cycles simulated
system.cpu.numWorkItemsCompleted                    0                       # number of work items this cpu completed
system.cpu.numWorkItemsStarted                      0                       # number of work items this cpu started
system.cpu.num_busy_cycles                         31                       # Number of busy cycles
system.cpu.num_conditional_control_insts            0                       # number of instructions that are conditional controls
system.cpu.num_fp_alu_accesses                     20                       # Number of float alu accesses
system.cpu.num_fp_insts                            20                       # number of float instructions
system.cpu.num_fp_register_reads                   54                       # number of times the floating registers were read
system.cpu.num_fp_register_writes                  20                       # number of times the floating registers were written
system.cpu.num_func_calls                           0                       # number of times a function call or return occured
system.cpu.num_idle_cycles                          0                       # Number of idle cycles
system.cpu.num_int_alu_accesses                     2                       # Number of integer alu accesses
system.cpu.num_int_insts                            2                       # number of integer instructions
system.cpu.num_int_register_reads                   4                       # number of times the integer registers were read
system.cpu.num_int_register_writes                  1                       # number of times the integer registers were written
system.cpu.num_load_insts                           1                       # Number of load instructions
system.cpu.num_mem_refs                             1                       # number of memory refs
system.cpu.num_store_insts                          0                       # Number of store instructions
system.cpu.num_vec_alu_accesses                     0                       # Number of vector alu accesses
system.cpu.num_vec_insts                            0                       # number of vector instructions
system.cpu.num_vec_register_reads                   0                       # number of times the vector registers were read
system.cpu.num_vec_register_writes                  0                       # number of times the vector registers were written
system.cpu.op_class::No_OpClass                     0      0.00%      0.00% # Class of executed instruction
system.cpu.op_class::IntAlu                         4     19.05%     19.05% # Class of executed instruction
system.cpu.op_class::IntMult                        0      0.00%     19.05% # Class of executed instruction
system.cpu.op_class::IntDiv                         0      0.00%     19.05% # Class of executed instruction
system.cpu.op_class::FloatAdd                       0      0.00%     19.05% # Class of executed instruction
system.cpu.op_class::FloatCmp                       0      0.00%     19.05% # Class of executed instruction
system.cpu.op_class::FloatCvt                       0      0.00%     19.05% # Class of executed instruction
system.cpu.op_class::FloatMult                      0      0.00%     19.05% # Class of executed instruction
system.cpu.op_class::FloatMultAcc                   0      0.00%     19.05% # Class of executed instruction
system.cpu.op_class::FloatDiv                       0      0.00%     19.05% # Class of executed instruction
system.cpu.op_class::FloatMisc                      0      0.00%     19.05% # Class of executed instruction
system.cpu.op_class::FloatSqrt                      0      0.00%     19.05% # Class of executed instruction
system.cpu.op_class::SimdAdd                        0      0.00%     19.05% # Class of executed instruction
system.cpu.op_class::SimdAddAcc                     0      0.00%     19.05% # Class of executed instruction
system.cpu.op_class::SimdAlu                        0      0.00%     19.05% # Class of executed instruction
system.cpu.op_class::SimdCmp                        0      0.00%     19.05% # Class of executed instruction
system.cpu.op_class::SimdCvt                        0      0.00%     19.05% # Class of executed instruction
system.cpu.op_class::SimdMisc                       0      0.00%     19.05% # Class of executed instruction
system.cpu.op_class::SimdMult                       0      0.00%     19.05% # Class of executed instruction
system.cpu.op_class::SimdMultAcc                    0      0.00%     19.05% # Class of executed instruction
system.cpu.op_class::SimdShift                      0      0.00%     19.05% # Class of executed instruction
system.cpu.op_class::SimdShiftAcc                   0      0.00%     19.05% # Class of executed instruction
system.cpu.op_class::SimdDiv                        0      0.00%     19.05% # Class of executed instruction
system.cpu.op_class::SimdSqrt                       0      0.00%     19.05% # Class of executed instruction
system.cpu.op_class::SimdFloatAdd                   7     33.33%     52.38% # Class of executed instruction
system.cpu.op_class::SimdFloatAlu                   0      0.00%     52.38% # Class of executed instruction
system.cpu.op_class::SimdFloatCmp                   0      0.00%     52.38% # Class of executed instruction
system.cpu.op_class::SimdFloatCvt                   0      0.00%     52.38% # Class of executed instruction
system.cpu.op_class::SimdFloatDiv                   0      0.00%     52.38% # Class of executed instruction
system.cpu.op_class::SimdFloatMisc                  0      0.00%     52.38% # Class of executed instruction
system.cpu.op_class::SimdFloatMult                  9     42.86%     95.24% # Class of executed instruction
system.cpu.op_class::SimdFloatMultAcc               0      0.00%     95.24% # Class of executed instruction
system.cpu.op_class::SimdFloatSqrt                  0      0.00%     95.24% # Class of executed instruction
system.cpu.op_class::SimdReduceAdd                  0      0.00%     95.24% # Class of executed instruction
system.cpu.op_class::SimdReduceAlu                  0      0.00%     95.24% # Class of executed instruction
system.cpu.op_class::SimdReduceCmp                  0      0.00%     95.24% # Class of executed instruction
system.cpu.op_class::SimdFloatReduceAdd             0      0.00%     95.24% # Class of executed instruction
system.cpu.op_class::SimdFloatReduceCmp             0      0.00%     95.24% # Class of executed instruction
system.cpu.op_class::SimdAes                        0      0.00%     95.24% # Class of executed instruction
system.cpu.op_class::SimdAesMix                     0      0.00%     95.24% # Class of executed instruction
system.cpu.op_class::SimdSha1Hash                   0      0.00%     95.24% # Class of executed instruction
system.cpu.op_class::SimdSha1Hash2                  0      0.00%     95.24% # Class of executed instruction
system.cpu.op_class::SimdSha256Hash                 0      0.00%     95.24% # Class of executed instruction
system.cpu.op_class::SimdSha256Hash2                0      0.00%     95.24% # Class of executed instruction
system.cpu.op_class::SimdShaSigma2                  0      0.00%     95.24% # Class of executed instruction
system.cpu.op_class::SimdShaSigma3                  0      0.00%     95.24% # Class of executed instruction
system.cpu.op_class::SimdPredAlu                    0      0.00%     95.24% # Class of executed instruction
system.cpu.op_class::MemRead                        0      0.00%     95.24% # Class of executed instruction
system.cpu.op_class::MemWrite                       0      0.00%     95.24% # Class of executed instruction
system.cpu.op_class::FloatMemRead                   1      4.76%    100.00% # Class of executed instruction
system.cpu.op_class::FloatMemWrite                  0      0.00%    100.00% # Class of executed instruction
system.cpu.op_class::IprAccess                      0      0.00%    100.00% # Class of executed instruction
system.cpu.op_class::InstPrefetch                   0      0.00%    100.00% # Class of executed instruction
system.cpu.op_class::total                         21                       # Class of executed instruction
system.cpu.workload.numSyscalls                     0                       # Number of system calls
system.l3bus.snoop_filter.hit_multi_requests            0                       # Number of requests hitting in the snoop filter with multiple (>1) holders of the requested data.
system.l3bus.snoop_filter.hit_multi_snoops            0                       # Number of snoops hitting in the snoop filter with multiple (>1) holders of the requested data.
system.l3bus.snoop_filter.hit_single_requests      5737237                       # Number of requests hitting in the snoop filter with a single holder of the requested data.
system.l3bus.snoop_filter.hit_single_snoops            0                       # Number of snoops hitting in the snoop filter with a single holder of the requested data.
system.l3bus.snoop_filter.tot_requests       11484705                       # Total number of requests made to the snoop filter.
system.l3bus.snoop_filter.tot_snoops                0                       # Total number of snoops made to the snoop filter.
system.membus.snoop_filter.hit_multi_requests            0                       # Number of requests hitting in the snoop filter with multiple (>1) holders of the requested data.
system.membus.snoop_filter.hit_multi_snoops            0                       # Number of snoops hitting in the snoop filter with multiple (>1) holders of the requested data.
system.membus.snoop_filter.hit_single_requests      5573943                       # Number of requests hitting in the snoop filter with a single holder of the requested data.
system.membus.snoop_filter.hit_single_snoops            0                       # Number of snoops hitting in the snoop filter with a single holder of the requested data.
system.membus.snoop_filter.tot_requests      11217599                       # Total number of requests made to the snoop filter.
system.membus.snoop_filter.tot_snoops               0                       # Total number of snoops made to the snoop filter.
system.switch_cpus.cc_regfile_reads           9299509                       # number of cc regfile reads
system.switch_cpus.cc_regfile_writes          4423631                       # number of cc regfile writes
system.switch_cpus.committedInsts           250000006                       # Number of Instructions Simulated
system.switch_cpus.committedOps             275175508                       # Number of Ops (including micro ops) Simulated
system.switch_cpus.cpi                       1.345283                       # CPI: Cycles Per Instruction
system.switch_cpus.cpi_total                 1.345283                       # CPI: Total CPI of All Threads
system.switch_cpus.fp_regfile_reads         455081518                       # number of floating regfile reads
system.switch_cpus.fp_regfile_writes        206106927                       # number of floating regfile writes
system.switch_cpus.idleCycles                    5109                       # Total number of cycles that the CPU has spent unscheduled due to idling
system.switch_cpus.iew.branchMispredicts         6484                       # Number of branch mispredicts detected at execute
system.switch_cpus.iew.exec_branches          1661672                       # Number of branches executed
system.switch_cpus.iew.exec_nop                     0                       # number of nop insts executed
system.switch_cpus.iew.exec_rate             0.951170                       # Inst execution rate
system.switch_cpus.iew.exec_refs            153819416                       # number of memory reference insts executed
system.switch_cpus.iew.exec_stores           31308060                       # Number of stores executed
system.switch_cpus.iew.exec_swp                     0                       # number of swp insts executed
system.switch_cpus.iew.iewBlockCycles        40669015                       # Number of cycles IEW is blocking
system.switch_cpus.iew.iewDispLoadInsts      77986416                       # Number of dispatched load instructions
system.switch_cpus.iew.iewDispNonSpecInsts            0                       # Number of dispatched non-speculative instructions
system.switch_cpus.iew.iewDispSquashedInsts          123                       # Number of squashed instructions skipped by dispatch
system.switch_cpus.iew.iewDispStoreInsts     31355160                       # Number of dispatched store instructions
system.switch_cpus.iew.iewDispatchedInsts    275443520                       # Number of instructions dispatched to IQ
system.switch_cpus.iew.iewExecLoadInsts     122511356                       # Number of load instructions executed
system.switch_cpus.iew.iewExecSquashedInsts         5316                       # Number of squashed instructions skipped in execute
system.switch_cpus.iew.iewExecutedInsts     319898057                       # Number of executed instructions
system.switch_cpus.iew.iewIQFullEvents         252130                       # Number of times the IQ has become full, causing a stall
system.switch_cpus.iew.iewIdleCycles                0                       # Number of cycles IEW is idle
system.switch_cpus.iew.iewLSQFullEvents      68774296                       # Number of times the LSQ has become full, causing a stall
system.switch_cpus.iew.iewSquashCycles           7426                       # Number of cycles IEW is squashing
system.switch_cpus.iew.iewUnblockCycles      69198396                       # Number of cycles IEW is unblocking
system.switch_cpus.iew.memOrderViolationEvents         1993                       # Number of memory order violations
system.switch_cpus.iew.predictedNotTakenIncorrect         6090                       # Number of branches that were predicted not taken incorrectly
system.switch_cpus.iew.predictedTakenIncorrect          394                       # Number of branches that were predicted taken incorrectly
system.switch_cpus.iew.wb_consumers         372789583                       # num instructions consuming a value
system.switch_cpus.iew.wb_count             275307948                       # cumulative count of insts written-back
system.switch_cpus.iew.wb_fanout             0.540462                       # average fanout of values written-back
system.switch_cpus.iew.wb_producers         201478448                       # num instructions producing a value
system.switch_cpus.iew.wb_rate               0.818588                       # insts written-back per cycle
system.switch_cpus.iew.wb_sent              275310117                       # cumulative count of insts sent to commit
system.switch_cpus.int_regfile_reads        343673125                       # number of integer regfile reads
system.switch_cpus.int_regfile_writes        36233551                       # number of integer regfile writes
system.switch_cpus.ipc                       0.743338                       # IPC: Instructions Per Cycle
system.switch_cpus.ipc_total                 0.743338                       # IPC: Total IPC of All Threads
system.switch_cpus.iq.FU_type_0::No_OpClass            0      0.00%      0.00% # Type of FU issued
system.switch_cpus.iq.FU_type_0::IntAlu      40337913     12.61%     12.61% # Type of FU issued
system.switch_cpus.iq.FU_type_0::IntMult            0      0.00%     12.61% # Type of FU issued
system.switch_cpus.iq.FU_type_0::IntDiv             0      0.00%     12.61% # Type of FU issued
system.switch_cpus.iq.FU_type_0::FloatAdd            0      0.00%     12.61% # Type of FU issued
system.switch_cpus.iq.FU_type_0::FloatCmp            0      0.00%     12.61% # Type of FU issued
system.switch_cpus.iq.FU_type_0::FloatCvt            0      0.00%     12.61% # Type of FU issued
system.switch_cpus.iq.FU_type_0::FloatMult            0      0.00%     12.61% # Type of FU issued
system.switch_cpus.iq.FU_type_0::FloatMultAcc            0      0.00%     12.61% # Type of FU issued
system.switch_cpus.iq.FU_type_0::FloatDiv            0      0.00%     12.61% # Type of FU issued
system.switch_cpus.iq.FU_type_0::FloatMisc            0      0.00%     12.61% # Type of FU issued
system.switch_cpus.iq.FU_type_0::FloatSqrt            0      0.00%     12.61% # Type of FU issued
system.switch_cpus.iq.FU_type_0::SimdAdd            0      0.00%     12.61% # Type of FU issued
system.switch_cpus.iq.FU_type_0::SimdAddAcc            0      0.00%     12.61% # Type of FU issued
system.switch_cpus.iq.FU_type_0::SimdAlu        37269      0.01%     12.62% # Type of FU issued
system.switch_cpus.iq.FU_type_0::SimdCmp            0      0.00%     12.62% # Type of FU issued
system.switch_cpus.iq.FU_type_0::SimdCvt            0      0.00%     12.62% # Type of FU issued
system.switch_cpus.iq.FU_type_0::SimdMisc            0      0.00%     12.62% # Type of FU issued
system.switch_cpus.iq.FU_type_0::SimdMult            0      0.00%     12.62% # Type of FU issued
system.switch_cpus.iq.FU_type_0::SimdMultAcc            0      0.00%     12.62% # Type of FU issued
system.switch_cpus.iq.FU_type_0::SimdShift            0      0.00%     12.62% # Type of FU issued
system.switch_cpus.iq.FU_type_0::SimdShiftAcc            0      0.00%     12.62% # Type of FU issued
system.switch_cpus.iq.FU_type_0::SimdDiv            0      0.00%     12.62% # Type of FU issued
system.switch_cpus.iq.FU_type_0::SimdSqrt            0      0.00%     12.62% # Type of FU issued
system.switch_cpus.iq.FU_type_0::SimdFloatAdd     77281012     24.16%     36.78% # Type of FU issued
system.switch_cpus.iq.FU_type_0::SimdFloatAlu            0      0.00%     36.78% # Type of FU issued
system.switch_cpus.iq.FU_type_0::SimdFloatCmp            0      0.00%     36.78% # Type of FU issued
system.switch_cpus.iq.FU_type_0::SimdFloatCvt            0      0.00%     36.78% # Type of FU issued
system.switch_cpus.iq.FU_type_0::SimdFloatDiv      1488387      0.47%     37.24% # Type of FU issued
system.switch_cpus.iq.FU_type_0::SimdFloatMisc            0      0.00%     37.24% # Type of FU issued
system.switch_cpus.iq.FU_type_0::SimdFloatMult     46934456     14.67%     51.92% # Type of FU issued
system.switch_cpus.iq.FU_type_0::SimdFloatMultAcc            0      0.00%     51.92% # Type of FU issued
system.switch_cpus.iq.FU_type_0::SimdFloatSqrt            0      0.00%     51.92% # Type of FU issued
system.switch_cpus.iq.FU_type_0::SimdReduceAdd            0      0.00%     51.92% # Type of FU issued
system.switch_cpus.iq.FU_type_0::SimdReduceAlu            0      0.00%     51.92% # Type of FU issued
system.switch_cpus.iq.FU_type_0::SimdReduceCmp            0      0.00%     51.92% # Type of FU issued
system.switch_cpus.iq.FU_type_0::SimdFloatReduceAdd            0      0.00%     51.92% # Type of FU issued
system.switch_cpus.iq.FU_type_0::SimdFloatReduceCmp            0      0.00%     51.92% # Type of FU issued
system.switch_cpus.iq.FU_type_0::SimdAes            0      0.00%     51.92% # Type of FU issued
system.switch_cpus.iq.FU_type_0::SimdAesMix            0      0.00%     51.92% # Type of FU issued
system.switch_cpus.iq.FU_type_0::SimdSha1Hash            0      0.00%     51.92% # Type of FU issued
system.switch_cpus.iq.FU_type_0::SimdSha1Hash2            0      0.00%     51.92% # Type of FU issued
system.switch_cpus.iq.FU_type_0::SimdSha256Hash            0      0.00%     51.92% # Type of FU issued
system.switch_cpus.iq.FU_type_0::SimdSha256Hash2            0      0.00%     51.92% # Type of FU issued
system.switch_cpus.iq.FU_type_0::SimdShaSigma2            0      0.00%     51.92% # Type of FU issued
system.switch_cpus.iq.FU_type_0::SimdShaSigma3            0      0.00%     51.92% # Type of FU issued
system.switch_cpus.iq.FU_type_0::SimdPredAlu            0      0.00%     51.92% # Type of FU issued
system.switch_cpus.iq.FU_type_0::MemRead     40984586     12.81%     64.73% # Type of FU issued
system.switch_cpus.iq.FU_type_0::MemWrite       129177      0.04%     64.77% # Type of FU issued
system.switch_cpus.iq.FU_type_0::FloatMemRead     81531468     25.49%     90.25% # Type of FU issued
system.switch_cpus.iq.FU_type_0::FloatMemWrite     31179112      9.75%    100.00% # Type of FU issued
system.switch_cpus.iq.FU_type_0::IprAccess            0      0.00%    100.00% # Type of FU issued
system.switch_cpus.iq.FU_type_0::InstPrefetch            0      0.00%    100.00% # Type of FU issued
system.switch_cpus.iq.FU_type_0::total      319903380                       # Type of FU issued
system.switch_cpus.iq.fp_alu_accesses       290516757                       # Number of floating point alu accesses
system.switch_cpus.iq.fp_inst_queue_reads    552329003                       # Number of floating instruction queue reads
system.switch_cpus.iq.fp_inst_queue_wakeup_accesses    237285214                       # Number of floating instruction queue wakeup accesses
system.switch_cpus.iq.fp_inst_queue_writes    237561805                       # Number of floating instruction queue writes
system.switch_cpus.iq.fu_busy_cnt            36294068                       # FU busy when requested
system.switch_cpus.iq.fu_busy_rate           0.113453                       # FU busy rate (busy events/executed inst)
system.switch_cpus.iq.fu_full::No_OpClass            0      0.00%      0.00% # attempts to use FU when none available
system.switch_cpus.iq.fu_full::IntAlu          489068      1.35%      1.35% # attempts to use FU when none available
system.switch_cpus.iq.fu_full::IntMult              0      0.00%      1.35% # attempts to use FU when none available
system.switch_cpus.iq.fu_full::IntDiv               0      0.00%      1.35% # attempts to use FU when none available
system.switch_cpus.iq.fu_full::FloatAdd             0      0.00%      1.35% # attempts to use FU when none available
system.switch_cpus.iq.fu_full::FloatCmp             0      0.00%      1.35% # attempts to use FU when none available
system.switch_cpus.iq.fu_full::FloatCvt             0      0.00%      1.35% # attempts to use FU when none available
system.switch_cpus.iq.fu_full::FloatMult            0      0.00%      1.35% # attempts to use FU when none available
system.switch_cpus.iq.fu_full::FloatMultAcc            0      0.00%      1.35% # attempts to use FU when none available
system.switch_cpus.iq.fu_full::FloatDiv             0      0.00%      1.35% # attempts to use FU when none available
system.switch_cpus.iq.fu_full::FloatMisc            0      0.00%      1.35% # attempts to use FU when none available
system.switch_cpus.iq.fu_full::FloatSqrt            0      0.00%      1.35% # attempts to use FU when none available
system.switch_cpus.iq.fu_full::SimdAdd              0      0.00%      1.35% # attempts to use FU when none available
system.switch_cpus.iq.fu_full::SimdAddAcc            0      0.00%      1.35% # attempts to use FU when none available
system.switch_cpus.iq.fu_full::SimdAlu              0      0.00%      1.35% # attempts to use FU when none available
system.switch_cpus.iq.fu_full::SimdCmp              0      0.00%      1.35% # attempts to use FU when none available
system.switch_cpus.iq.fu_full::SimdCvt              0      0.00%      1.35% # attempts to use FU when none available
system.switch_cpus.iq.fu_full::SimdMisc             0      0.00%      1.35% # attempts to use FU when none available
system.switch_cpus.iq.fu_full::SimdMult             0      0.00%      1.35% # attempts to use FU when none available
system.switch_cpus.iq.fu_full::SimdMultAcc            0      0.00%      1.35% # attempts to use FU when none available
system.switch_cpus.iq.fu_full::SimdShift            0      0.00%      1.35% # attempts to use FU when none available
system.switch_cpus.iq.fu_full::SimdShiftAcc            0      0.00%      1.35% # attempts to use FU when none available
system.switch_cpus.iq.fu_full::SimdDiv              0      0.00%      1.35% # attempts to use FU when none available
system.switch_cpus.iq.fu_full::SimdSqrt             0      0.00%      1.35% # attempts to use FU when none available
system.switch_cpus.iq.fu_full::SimdFloatAdd      6553312     18.06%     19.40% # attempts to use FU when none available
system.switch_cpus.iq.fu_full::SimdFloatAlu            0      0.00%     19.40% # attempts to use FU when none available
system.switch_cpus.iq.fu_full::SimdFloatCmp            0      0.00%     19.40% # attempts to use FU when none available
system.switch_cpus.iq.fu_full::SimdFloatCvt            0      0.00%     19.40% # attempts to use FU when none available
system.switch_cpus.iq.fu_full::SimdFloatDiv            0      0.00%     19.40% # attempts to use FU when none available
system.switch_cpus.iq.fu_full::SimdFloatMisc            0      0.00%     19.40% # attempts to use FU when none available
system.switch_cpus.iq.fu_full::SimdFloatMult      5440602     14.99%     34.39% # attempts to use FU when none available
system.switch_cpus.iq.fu_full::SimdFloatMultAcc            0      0.00%     34.39% # attempts to use FU when none available
system.switch_cpus.iq.fu_full::SimdFloatSqrt            0      0.00%     34.39% # attempts to use FU when none available
system.switch_cpus.iq.fu_full::SimdReduceAdd            0      0.00%     34.39% # attempts to use FU when none available
system.switch_cpus.iq.fu_full::SimdReduceAlu            0      0.00%     34.39% # attempts to use FU when none available
system.switch_cpus.iq.fu_full::SimdReduceCmp            0      0.00%     34.39% # attempts to use FU when none available
system.switch_cpus.iq.fu_full::SimdFloatReduceAdd            0      0.00%     34.39% # attempts to use FU when none available
system.switch_cpus.iq.fu_full::SimdFloatReduceCmp            0      0.00%     34.39% # attempts to use FU when none available
system.switch_cpus.iq.fu_full::SimdAes              0      0.00%     34.39% # attempts to use FU when none available
system.switch_cpus.iq.fu_full::SimdAesMix            0      0.00%     34.39% # attempts to use FU when none available
system.switch_cpus.iq.fu_full::SimdSha1Hash            0      0.00%     34.39% # attempts to use FU when none available
system.switch_cpus.iq.fu_full::SimdSha1Hash2            0      0.00%     34.39% # attempts to use FU when none available
system.switch_cpus.iq.fu_full::SimdSha256Hash            0      0.00%     34.39% # attempts to use FU when none available
system.switch_cpus.iq.fu_full::SimdSha256Hash2            0      0.00%     34.39% # attempts to use FU when none available
system.switch_cpus.iq.fu_full::SimdShaSigma2            0      0.00%     34.39% # attempts to use FU when none available
system.switch_cpus.iq.fu_full::SimdShaSigma3            0      0.00%     34.39% # attempts to use FU when none available
system.switch_cpus.iq.fu_full::SimdPredAlu            0      0.00%     34.39% # attempts to use FU when none available
system.switch_cpus.iq.fu_full::MemRead        7553596     20.81%     55.21% # attempts to use FU when none available
system.switch_cpus.iq.fu_full::MemWrite         32914      0.09%     55.30% # attempts to use FU when none available
system.switch_cpus.iq.fu_full::FloatMemRead     13978385     38.51%     93.81% # attempts to use FU when none available
system.switch_cpus.iq.fu_full::FloatMemWrite      2246191      6.19%    100.00% # attempts to use FU when none available
system.switch_cpus.iq.fu_full::IprAccess            0      0.00%    100.00% # attempts to use FU when none available
system.switch_cpus.iq.fu_full::InstPrefetch            0      0.00%    100.00% # attempts to use FU when none available
system.switch_cpus.iq.int_alu_accesses       65680691                       # Number of integer alu accesses
system.switch_cpus.iq.int_inst_queue_reads    460093256                       # Number of integer instruction queue reads
system.switch_cpus.iq.int_inst_queue_wakeup_accesses     38022734                       # Number of integer instruction queue wakeup accesses
system.switch_cpus.iq.int_inst_queue_writes     38151637                       # Number of integer instruction queue writes
system.switch_cpus.iq.iqInstsAdded          275443520                       # Number of instructions added to the IQ (excludes non-spec)
system.switch_cpus.iq.iqInstsIssued         319903380                       # Number of instructions issued
system.switch_cpus.iq.iqSquashedInstsExamined       267929                       # Number of squashed instructions iterated over during squash; mainly for profiling
system.switch_cpus.iq.iqSquashedInstsIssued         5849                       # Number of squashed instructions issued
system.switch_cpus.iq.iqSquashedOperandsExamined       455392                       # Number of squashed operands that are examined and possibly removed from graph
system.switch_cpus.iq.issued_per_cycle::samples    336315589                       # Number of insts issued each cycle
system.switch_cpus.iq.issued_per_cycle::mean     0.951200                       # Number of insts issued each cycle
system.switch_cpus.iq.issued_per_cycle::stdev     2.065715                       # Number of insts issued each cycle
system.switch_cpus.iq.issued_per_cycle::underflows            0      0.00%      0.00% # Number of insts issued each cycle
system.switch_cpus.iq.issued_per_cycle::0    264224433     78.56%     78.56% # Number of insts issued each cycle
system.switch_cpus.iq.issued_per_cycle::1      8179502      2.43%     81.00% # Number of insts issued each cycle
system.switch_cpus.iq.issued_per_cycle::2      8017618      2.38%     83.38% # Number of insts issued each cycle
system.switch_cpus.iq.issued_per_cycle::3      5746051      1.71%     85.09% # Number of insts issued each cycle
system.switch_cpus.iq.issued_per_cycle::4     15876005      4.72%     89.81% # Number of insts issued each cycle
system.switch_cpus.iq.issued_per_cycle::5     11939879      3.55%     93.36% # Number of insts issued each cycle
system.switch_cpus.iq.issued_per_cycle::6      8412064      2.50%     95.86% # Number of insts issued each cycle
system.switch_cpus.iq.issued_per_cycle::7      6585606      1.96%     97.82% # Number of insts issued each cycle
system.switch_cpus.iq.issued_per_cycle::8      7334431      2.18%    100.00% # Number of insts issued each cycle
system.switch_cpus.iq.issued_per_cycle::overflows            0      0.00%    100.00% # Number of insts issued each cycle
system.switch_cpus.iq.issued_per_cycle::min_value            0                       # Number of insts issued each cycle
system.switch_cpus.iq.issued_per_cycle::max_value            8                       # Number of insts issued each cycle
system.switch_cpus.iq.issued_per_cycle::total    336315589                       # Number of insts issued each cycle
system.switch_cpus.iq.rate                   0.951186                       # Inst issue rate
system.switch_cpus.iq.vec_alu_accesses              0                       # Number of vector alu accesses
system.switch_cpus.iq.vec_inst_queue_reads            0                       # Number of vector instruction queue reads
system.switch_cpus.iq.vec_inst_queue_wakeup_accesses            0                       # Number of vector instruction queue wakeup accesses
system.switch_cpus.iq.vec_inst_queue_writes            0                       # Number of vector instruction queue writes
system.switch_cpus.memDep0.conflictingLoads      2302863                       # Number of conflicting loads.
system.switch_cpus.memDep0.conflictingStores       682056                       # Number of conflicting stores.
system.switch_cpus.memDep0.insertedLoads     77986416                       # Number of loads inserted to the mem dependence unit.
system.switch_cpus.memDep0.insertedStores     31355160                       # Number of stores inserted to the mem dependence unit.
system.switch_cpus.misc_regfile_reads       162456441                       # number of misc regfile reads
system.switch_cpus.misc_regfile_writes              1                       # number of misc regfile writes
system.switch_cpus.numCycles                336320698                       # number of cpu cycles simulated
system.switch_cpus.numWorkItemsCompleted            0                       # number of work items this cpu completed
system.switch_cpus.numWorkItemsStarted              0                       # number of work items this cpu started
system.switch_cpus.timesIdled                      39                       # Number of times that the entire CPU went into an idle state and unscheduled itself
system.clk_domain.clock                           333                       # Clock period in ticks
system.cpu.dcache.demand_hits::.switch_cpus.data     72572220                       # number of demand (read+write) hits
system.cpu.dcache.demand_hits::total         72572220                       # number of demand (read+write) hits
system.cpu.dcache.overall_hits::.switch_cpus.data     75629479                       # number of overall hits
system.cpu.dcache.overall_hits::total        75629479                       # number of overall hits
system.cpu.dcache.demand_misses::.cpu.data            1                       # number of demand (read+write) misses
system.cpu.dcache.demand_misses::.switch_cpus.data      7289709                       # number of demand (read+write) misses
system.cpu.dcache.demand_misses::total        7289710                       # number of demand (read+write) misses
system.cpu.dcache.overall_misses::.cpu.data            1                       # number of overall misses
system.cpu.dcache.overall_misses::.switch_cpus.data     24494065                       # number of overall misses
system.cpu.dcache.overall_misses::total      24494066                       # number of overall misses
system.cpu.dcache.demand_miss_latency::.switch_cpus.data 374455467604                       # number of demand (read+write) miss cycles
system.cpu.dcache.demand_miss_latency::total 374455467604                       # number of demand (read+write) miss cycles
system.cpu.dcache.overall_miss_latency::.switch_cpus.data 374455467604                       # number of overall miss cycles
system.cpu.dcache.overall_miss_latency::total 374455467604                       # number of overall miss cycles
system.cpu.dcache.demand_accesses::.cpu.data            1                       # number of demand (read+write) accesses
system.cpu.dcache.demand_accesses::.switch_cpus.data     79861929                       # number of demand (read+write) accesses
system.cpu.dcache.demand_accesses::total     79861930                       # number of demand (read+write) accesses
system.cpu.dcache.overall_accesses::.cpu.data            1                       # number of overall (read+write) accesses
system.cpu.dcache.overall_accesses::.switch_cpus.data    100123544                       # number of overall (read+write) accesses
system.cpu.dcache.overall_accesses::total    100123545                       # number of overall (read+write) accesses
system.cpu.dcache.demand_miss_rate::.cpu.data            1                       # miss rate for demand accesses
system.cpu.dcache.demand_miss_rate::.switch_cpus.data     0.091279                       # miss rate for demand accesses
system.cpu.dcache.demand_miss_rate::total     0.091279                       # miss rate for demand accesses
system.cpu.dcache.overall_miss_rate::.cpu.data            1                       # miss rate for overall accesses
system.cpu.dcache.overall_miss_rate::.switch_cpus.data     0.244638                       # miss rate for overall accesses
system.cpu.dcache.overall_miss_rate::total     0.244638                       # miss rate for overall accesses
system.cpu.dcache.demand_avg_miss_latency::.switch_cpus.data 51367.683896                       # average overall miss latency
system.cpu.dcache.demand_avg_miss_latency::total 51367.676849                       # average overall miss latency
system.cpu.dcache.overall_avg_miss_latency::.switch_cpus.data 15287.599980                       # average overall miss latency
system.cpu.dcache.overall_avg_miss_latency::total 15287.599356                       # average overall miss latency
system.cpu.dcache.blocked_cycles::no_mshrs     85497557                       # number of cycles access was blocked
system.cpu.dcache.blocked_cycles::no_targets            0                       # number of cycles access was blocked
system.cpu.dcache.blocked::no_mshrs           3975476                       # number of cycles access was blocked
system.cpu.dcache.blocked::no_targets               0                       # number of cycles access was blocked
system.cpu.dcache.avg_blocked_cycles::no_mshrs    21.506244                       # average number of cycles each access was blocked
system.cpu.dcache.avg_blocked_cycles::no_targets          nan                       # average number of cycles each access was blocked
system.cpu.dcache.writebacks::.writebacks      9310878                       # number of writebacks
system.cpu.dcache.writebacks::total           9310878                       # number of writebacks
system.cpu.dcache.demand_mshr_hits::.switch_cpus.data      6530185                       # number of demand (read+write) MSHR hits
system.cpu.dcache.demand_mshr_hits::total      6530185                       # number of demand (read+write) MSHR hits
system.cpu.dcache.overall_mshr_hits::.switch_cpus.data      6530185                       # number of overall MSHR hits
system.cpu.dcache.overall_mshr_hits::total      6530185                       # number of overall MSHR hits
system.cpu.dcache.demand_mshr_misses::.switch_cpus.data       759524                       # number of demand (read+write) MSHR misses
system.cpu.dcache.demand_mshr_misses::total       759524                       # number of demand (read+write) MSHR misses
system.cpu.dcache.overall_mshr_misses::.switch_cpus.data      9311402                       # number of overall MSHR misses
system.cpu.dcache.overall_mshr_misses::total      9311402                       # number of overall MSHR misses
system.cpu.dcache.demand_mshr_miss_latency::.switch_cpus.data  41503629492                       # number of demand (read+write) MSHR miss cycles
system.cpu.dcache.demand_mshr_miss_latency::total  41503629492                       # number of demand (read+write) MSHR miss cycles
system.cpu.dcache.overall_mshr_miss_latency::.switch_cpus.data 1113393226599                       # number of overall MSHR miss cycles
system.cpu.dcache.overall_mshr_miss_latency::total 1113393226599                       # number of overall MSHR miss cycles
system.cpu.dcache.demand_mshr_miss_rate::.switch_cpus.data     0.009510                       # mshr miss rate for demand accesses
system.cpu.dcache.demand_mshr_miss_rate::total     0.009510                       # mshr miss rate for demand accesses
system.cpu.dcache.overall_mshr_miss_rate::.switch_cpus.data     0.092999                       # mshr miss rate for overall accesses
system.cpu.dcache.overall_mshr_miss_rate::total     0.092999                       # mshr miss rate for overall accesses
system.cpu.dcache.demand_avg_mshr_miss_latency::.switch_cpus.data 54644.263370                       # average overall mshr miss latency
system.cpu.dcache.demand_avg_mshr_miss_latency::total 54644.263370                       # average overall mshr miss latency
system.cpu.dcache.overall_avg_mshr_miss_latency::.switch_cpus.data 119573.102590                       # average overall mshr miss latency
system.cpu.dcache.overall_avg_mshr_miss_latency::total 119573.102590                       # average overall mshr miss latency
system.cpu.dcache.replacements                9310878                       # number of replacements
system.cpu.dcache.ReadReq_hits::.switch_cpus.data     42520834                       # number of ReadReq hits
system.cpu.dcache.ReadReq_hits::total        42520834                       # number of ReadReq hits
system.cpu.dcache.ReadReq_misses::.cpu.data            1                       # number of ReadReq misses
system.cpu.dcache.ReadReq_misses::.switch_cpus.data      6038745                       # number of ReadReq misses
system.cpu.dcache.ReadReq_misses::total       6038746                       # number of ReadReq misses
system.cpu.dcache.ReadReq_miss_latency::.switch_cpus.data 327910224870                       # number of ReadReq miss cycles
system.cpu.dcache.ReadReq_miss_latency::total 327910224870                       # number of ReadReq miss cycles
system.cpu.dcache.ReadReq_accesses::.cpu.data            1                       # number of ReadReq accesses(hits+misses)
system.cpu.dcache.ReadReq_accesses::.switch_cpus.data     48559579                       # number of ReadReq accesses(hits+misses)
system.cpu.dcache.ReadReq_accesses::total     48559580                       # number of ReadReq accesses(hits+misses)
system.cpu.dcache.ReadReq_miss_rate::.cpu.data            1                       # miss rate for ReadReq accesses
system.cpu.dcache.ReadReq_miss_rate::.switch_cpus.data     0.124357                       # miss rate for ReadReq accesses
system.cpu.dcache.ReadReq_miss_rate::total     0.124357                       # miss rate for ReadReq accesses
system.cpu.dcache.ReadReq_avg_miss_latency::.switch_cpus.data 54301.055082                       # average ReadReq miss latency
system.cpu.dcache.ReadReq_avg_miss_latency::total 54301.046090                       # average ReadReq miss latency
system.cpu.dcache.ReadReq_mshr_hits::.switch_cpus.data      5969433                       # number of ReadReq MSHR hits
system.cpu.dcache.ReadReq_mshr_hits::total      5969433                       # number of ReadReq MSHR hits
system.cpu.dcache.ReadReq_mshr_misses::.switch_cpus.data        69312                       # number of ReadReq MSHR misses
system.cpu.dcache.ReadReq_mshr_misses::total        69312                       # number of ReadReq MSHR misses
system.cpu.dcache.ReadReq_mshr_miss_latency::.switch_cpus.data   6717618324                       # number of ReadReq MSHR miss cycles
system.cpu.dcache.ReadReq_mshr_miss_latency::total   6717618324                       # number of ReadReq MSHR miss cycles
system.cpu.dcache.ReadReq_mshr_miss_rate::.switch_cpus.data     0.001427                       # mshr miss rate for ReadReq accesses
system.cpu.dcache.ReadReq_mshr_miss_rate::total     0.001427                       # mshr miss rate for ReadReq accesses
system.cpu.dcache.ReadReq_avg_mshr_miss_latency::.switch_cpus.data 96918.546918                       # average ReadReq mshr miss latency
system.cpu.dcache.ReadReq_avg_mshr_miss_latency::total 96918.546918                       # average ReadReq mshr miss latency
system.cpu.dcache.WriteReq_hits::.switch_cpus.data     30051386                       # number of WriteReq hits
system.cpu.dcache.WriteReq_hits::total       30051386                       # number of WriteReq hits
system.cpu.dcache.WriteReq_misses::.switch_cpus.data      1250964                       # number of WriteReq misses
system.cpu.dcache.WriteReq_misses::total      1250964                       # number of WriteReq misses
system.cpu.dcache.WriteReq_miss_latency::.switch_cpus.data  46545242734                       # number of WriteReq miss cycles
system.cpu.dcache.WriteReq_miss_latency::total  46545242734                       # number of WriteReq miss cycles
system.cpu.dcache.WriteReq_accesses::.switch_cpus.data     31302350                       # number of WriteReq accesses(hits+misses)
system.cpu.dcache.WriteReq_accesses::total     31302350                       # number of WriteReq accesses(hits+misses)
system.cpu.dcache.WriteReq_miss_rate::.switch_cpus.data     0.039964                       # miss rate for WriteReq accesses
system.cpu.dcache.WriteReq_miss_rate::total     0.039964                       # miss rate for WriteReq accesses
system.cpu.dcache.WriteReq_avg_miss_latency::.switch_cpus.data 37207.499763                       # average WriteReq miss latency
system.cpu.dcache.WriteReq_avg_miss_latency::total 37207.499763                       # average WriteReq miss latency
system.cpu.dcache.WriteReq_mshr_hits::.switch_cpus.data       560752                       # number of WriteReq MSHR hits
system.cpu.dcache.WriteReq_mshr_hits::total       560752                       # number of WriteReq MSHR hits
system.cpu.dcache.WriteReq_mshr_misses::.switch_cpus.data       690212                       # number of WriteReq MSHR misses
system.cpu.dcache.WriteReq_mshr_misses::total       690212                       # number of WriteReq MSHR misses
system.cpu.dcache.WriteReq_mshr_miss_latency::.switch_cpus.data  34786011168                       # number of WriteReq MSHR miss cycles
system.cpu.dcache.WriteReq_mshr_miss_latency::total  34786011168                       # number of WriteReq MSHR miss cycles
system.cpu.dcache.WriteReq_mshr_miss_rate::.switch_cpus.data     0.022050                       # mshr miss rate for WriteReq accesses
system.cpu.dcache.WriteReq_mshr_miss_rate::total     0.022050                       # mshr miss rate for WriteReq accesses
system.cpu.dcache.WriteReq_avg_mshr_miss_latency::.switch_cpus.data 50399.024022                       # average WriteReq mshr miss latency
system.cpu.dcache.WriteReq_avg_mshr_miss_latency::total 50399.024022                       # average WriteReq mshr miss latency
system.cpu.dcache.SoftPFReq_hits::.switch_cpus.data      3057259                       # number of SoftPFReq hits
system.cpu.dcache.SoftPFReq_hits::total       3057259                       # number of SoftPFReq hits
system.cpu.dcache.SoftPFReq_misses::.switch_cpus.data     17204356                       # number of SoftPFReq misses
system.cpu.dcache.SoftPFReq_misses::total     17204356                       # number of SoftPFReq misses
system.cpu.dcache.SoftPFReq_accesses::.switch_cpus.data     20261615                       # number of SoftPFReq accesses(hits+misses)
system.cpu.dcache.SoftPFReq_accesses::total     20261615                       # number of SoftPFReq accesses(hits+misses)
system.cpu.dcache.SoftPFReq_miss_rate::.switch_cpus.data     0.849111                       # miss rate for SoftPFReq accesses
system.cpu.dcache.SoftPFReq_miss_rate::total     0.849111                       # miss rate for SoftPFReq accesses
system.cpu.dcache.SoftPFReq_mshr_misses::.switch_cpus.data      8551878                       # number of SoftPFReq MSHR misses
system.cpu.dcache.SoftPFReq_mshr_misses::total      8551878                       # number of SoftPFReq MSHR misses
system.cpu.dcache.SoftPFReq_mshr_miss_latency::.switch_cpus.data 1071889597107                       # number of SoftPFReq MSHR miss cycles
system.cpu.dcache.SoftPFReq_mshr_miss_latency::total 1071889597107                       # number of SoftPFReq MSHR miss cycles
system.cpu.dcache.SoftPFReq_mshr_miss_rate::.switch_cpus.data     0.422073                       # mshr miss rate for SoftPFReq accesses
system.cpu.dcache.SoftPFReq_mshr_miss_rate::total     0.422073                       # mshr miss rate for SoftPFReq accesses
system.cpu.dcache.SoftPFReq_avg_mshr_miss_latency::.switch_cpus.data 125339.673591                       # average SoftPFReq mshr miss latency
system.cpu.dcache.SoftPFReq_avg_mshr_miss_latency::total 125339.673591                       # average SoftPFReq mshr miss latency
system.cpu.dcache.power_state.pwrStateResidencyTicks::UNDEFINED 13831047340434                       # Cumulative time (in ticks) in various power states
system.cpu.dcache.tags.tagsinuse           511.979614                       # Cycle average of tags in use
system.cpu.dcache.tags.total_refs            84940869                       # Total number of references to valid blocks.
system.cpu.dcache.tags.sampled_refs           9311390                       # Sample count of references to valid blocks.
system.cpu.dcache.tags.avg_refs              9.122254                       # Average number of references to valid blocks.
system.cpu.dcache.tags.warmup_cycle      13719052547667                       # Cycle when the warmup percentage was hit.
system.cpu.dcache.tags.occ_blocks::.cpu.data     0.002996                       # Average occupied blocks per requestor
system.cpu.dcache.tags.occ_blocks::.switch_cpus.data   511.976618                       # Average occupied blocks per requestor
system.cpu.dcache.tags.occ_percent::.cpu.data     0.000006                       # Average percentage of cache occupancy
system.cpu.dcache.tags.occ_percent::.switch_cpus.data     0.999954                       # Average percentage of cache occupancy
system.cpu.dcache.tags.occ_percent::total     0.999960                       # Average percentage of cache occupancy
system.cpu.dcache.tags.occ_task_id_blocks::1024          512                       # Occupied blocks per task id
system.cpu.dcache.tags.age_task_id_blocks_1024::0          502                       # Occupied blocks per task id
system.cpu.dcache.tags.age_task_id_blocks_1024::2           10                       # Occupied blocks per task id
system.cpu.dcache.tags.occ_task_id_percent::1024            1                       # Percentage of cache occupancy per task id
system.cpu.dcache.tags.tag_accesses         810299750                       # Number of tag accesses
system.cpu.dcache.tags.data_accesses        810299750                       # Number of data accesses
system.cpu.dcache.tags.power_state.pwrStateResidencyTicks::UNDEFINED 13831047340434                       # Cumulative time (in ticks) in various power states
system.cpu.dtb.rdAccesses                           1                       # TLB accesses on read requests
system.cpu.dtb.wrAccesses                           0                       # TLB accesses on write requests
system.cpu.dtb.rdMisses                             0                       # TLB misses on read requests
system.cpu.dtb.wrMisses                             0                       # TLB misses on write requests
system.cpu.dtb.walker.power_state.pwrStateResidencyTicks::UNDEFINED 13831047340434                       # Cumulative time (in ticks) in various power states
system.cpu.icache.demand_hits::.cpu.inst           27                       # number of demand (read+write) hits
system.cpu.icache.demand_hits::.switch_cpus.inst     21909357                       # number of demand (read+write) hits
system.cpu.icache.demand_hits::total         21909384                       # number of demand (read+write) hits
system.cpu.icache.overall_hits::.cpu.inst           27                       # number of overall hits
system.cpu.icache.overall_hits::.switch_cpus.inst     21909357                       # number of overall hits
system.cpu.icache.overall_hits::total        21909384                       # number of overall hits
system.cpu.icache.demand_misses::.cpu.inst            2                       # number of demand (read+write) misses
system.cpu.icache.demand_misses::.switch_cpus.inst           55                       # number of demand (read+write) misses
system.cpu.icache.demand_misses::total             57                       # number of demand (read+write) misses
system.cpu.icache.overall_misses::.cpu.inst            2                       # number of overall misses
system.cpu.icache.overall_misses::.switch_cpus.inst           55                       # number of overall misses
system.cpu.icache.overall_misses::total            57                       # number of overall misses
system.cpu.icache.demand_miss_latency::.switch_cpus.inst      4113549                       # number of demand (read+write) miss cycles
system.cpu.icache.demand_miss_latency::total      4113549                       # number of demand (read+write) miss cycles
system.cpu.icache.overall_miss_latency::.switch_cpus.inst      4113549                       # number of overall miss cycles
system.cpu.icache.overall_miss_latency::total      4113549                       # number of overall miss cycles
system.cpu.icache.demand_accesses::.cpu.inst           29                       # number of demand (read+write) accesses
system.cpu.icache.demand_accesses::.switch_cpus.inst     21909412                       # number of demand (read+write) accesses
system.cpu.icache.demand_accesses::total     21909441                       # number of demand (read+write) accesses
system.cpu.icache.overall_accesses::.cpu.inst           29                       # number of overall (read+write) accesses
system.cpu.icache.overall_accesses::.switch_cpus.inst     21909412                       # number of overall (read+write) accesses
system.cpu.icache.overall_accesses::total     21909441                       # number of overall (read+write) accesses
system.cpu.icache.demand_miss_rate::.cpu.inst     0.068966                       # miss rate for demand accesses
system.cpu.icache.demand_miss_rate::.switch_cpus.inst     0.000003                       # miss rate for demand accesses
system.cpu.icache.demand_miss_rate::total     0.000003                       # miss rate for demand accesses
system.cpu.icache.overall_miss_rate::.cpu.inst     0.068966                       # miss rate for overall accesses
system.cpu.icache.overall_miss_rate::.switch_cpus.inst     0.000003                       # miss rate for overall accesses
system.cpu.icache.overall_miss_rate::total     0.000003                       # miss rate for overall accesses
system.cpu.icache.demand_avg_miss_latency::.switch_cpus.inst 74791.800000                       # average overall miss latency
system.cpu.icache.demand_avg_miss_latency::total 72167.526316                       # average overall miss latency
system.cpu.icache.overall_avg_miss_latency::.switch_cpus.inst 74791.800000                       # average overall miss latency
system.cpu.icache.overall_avg_miss_latency::total 72167.526316                       # average overall miss latency
system.cpu.icache.blocked_cycles::no_mshrs            0                       # number of cycles access was blocked
system.cpu.icache.blocked_cycles::no_targets            0                       # number of cycles access was blocked
system.cpu.icache.blocked::no_mshrs                 0                       # number of cycles access was blocked
system.cpu.icache.blocked::no_targets               0                       # number of cycles access was blocked
system.cpu.icache.avg_blocked_cycles::no_mshrs          nan                       # average number of cycles each access was blocked
system.cpu.icache.avg_blocked_cycles::no_targets          nan                       # average number of cycles each access was blocked
system.cpu.icache.demand_mshr_hits::.switch_cpus.inst            2                       # number of demand (read+write) MSHR hits
system.cpu.icache.demand_mshr_hits::total            2                       # number of demand (read+write) MSHR hits
system.cpu.icache.overall_mshr_hits::.switch_cpus.inst            2                       # number of overall MSHR hits
system.cpu.icache.overall_mshr_hits::total            2                       # number of overall MSHR hits
system.cpu.icache.demand_mshr_misses::.switch_cpus.inst           53                       # number of demand (read+write) MSHR misses
system.cpu.icache.demand_mshr_misses::total           53                       # number of demand (read+write) MSHR misses
system.cpu.icache.overall_mshr_misses::.switch_cpus.inst           53                       # number of overall MSHR misses
system.cpu.icache.overall_mshr_misses::total           53                       # number of overall MSHR misses
system.cpu.icache.demand_mshr_miss_latency::.switch_cpus.inst      3931731                       # number of demand (read+write) MSHR miss cycles
system.cpu.icache.demand_mshr_miss_latency::total      3931731                       # number of demand (read+write) MSHR miss cycles
system.cpu.icache.overall_mshr_miss_latency::.switch_cpus.inst      3931731                       # number of overall MSHR miss cycles
system.cpu.icache.overall_mshr_miss_latency::total      3931731                       # number of overall MSHR miss cycles
system.cpu.icache.demand_mshr_miss_rate::.switch_cpus.inst     0.000002                       # mshr miss rate for demand accesses
system.cpu.icache.demand_mshr_miss_rate::total     0.000002                       # mshr miss rate for demand accesses
system.cpu.icache.overall_mshr_miss_rate::.switch_cpus.inst     0.000002                       # mshr miss rate for overall accesses
system.cpu.icache.overall_mshr_miss_rate::total     0.000002                       # mshr miss rate for overall accesses
system.cpu.icache.demand_avg_mshr_miss_latency::.switch_cpus.inst 74183.603774                       # average overall mshr miss latency
system.cpu.icache.demand_avg_mshr_miss_latency::total 74183.603774                       # average overall mshr miss latency
system.cpu.icache.overall_avg_mshr_miss_latency::.switch_cpus.inst 74183.603774                       # average overall mshr miss latency
system.cpu.icache.overall_avg_mshr_miss_latency::total 74183.603774                       # average overall mshr miss latency
system.cpu.icache.replacements                      0                       # number of replacements
system.cpu.icache.ReadReq_hits::.cpu.inst           27                       # number of ReadReq hits
system.cpu.icache.ReadReq_hits::.switch_cpus.inst     21909357                       # number of ReadReq hits
system.cpu.icache.ReadReq_hits::total        21909384                       # number of ReadReq hits
system.cpu.icache.ReadReq_misses::.cpu.inst            2                       # number of ReadReq misses
system.cpu.icache.ReadReq_misses::.switch_cpus.inst           55                       # number of ReadReq misses
system.cpu.icache.ReadReq_misses::total            57                       # number of ReadReq misses
system.cpu.icache.ReadReq_miss_latency::.switch_cpus.inst      4113549                       # number of ReadReq miss cycles
system.cpu.icache.ReadReq_miss_latency::total      4113549                       # number of ReadReq miss cycles
system.cpu.icache.ReadReq_accesses::.cpu.inst           29                       # number of ReadReq accesses(hits+misses)
system.cpu.icache.ReadReq_accesses::.switch_cpus.inst     21909412                       # number of ReadReq accesses(hits+misses)
system.cpu.icache.ReadReq_accesses::total     21909441                       # number of ReadReq accesses(hits+misses)
system.cpu.icache.ReadReq_miss_rate::.cpu.inst     0.068966                       # miss rate for ReadReq accesses
system.cpu.icache.ReadReq_miss_rate::.switch_cpus.inst     0.000003                       # miss rate for ReadReq accesses
system.cpu.icache.ReadReq_miss_rate::total     0.000003                       # miss rate for ReadReq accesses
system.cpu.icache.ReadReq_avg_miss_latency::.switch_cpus.inst 74791.800000                       # average ReadReq miss latency
system.cpu.icache.ReadReq_avg_miss_latency::total 72167.526316                       # average ReadReq miss latency
system.cpu.icache.ReadReq_mshr_hits::.switch_cpus.inst            2                       # number of ReadReq MSHR hits
system.cpu.icache.ReadReq_mshr_hits::total            2                       # number of ReadReq MSHR hits
system.cpu.icache.ReadReq_mshr_misses::.switch_cpus.inst           53                       # number of ReadReq MSHR misses
system.cpu.icache.ReadReq_mshr_misses::total           53                       # number of ReadReq MSHR misses
system.cpu.icache.ReadReq_mshr_miss_latency::.switch_cpus.inst      3931731                       # number of ReadReq MSHR miss cycles
system.cpu.icache.ReadReq_mshr_miss_latency::total      3931731                       # number of ReadReq MSHR miss cycles
system.cpu.icache.ReadReq_mshr_miss_rate::.switch_cpus.inst     0.000002                       # mshr miss rate for ReadReq accesses
system.cpu.icache.ReadReq_mshr_miss_rate::total     0.000002                       # mshr miss rate for ReadReq accesses
system.cpu.icache.ReadReq_avg_mshr_miss_latency::.switch_cpus.inst 74183.603774                       # average ReadReq mshr miss latency
system.cpu.icache.ReadReq_avg_mshr_miss_latency::total 74183.603774                       # average ReadReq mshr miss latency
system.cpu.icache.power_state.pwrStateResidencyTicks::UNDEFINED 13831047340434                       # Cumulative time (in ticks) in various power states
system.cpu.icache.tags.tagsinuse            52.548554                       # Cycle average of tags in use
system.cpu.icache.tags.total_refs            21909439                       # Total number of references to valid blocks.
system.cpu.icache.tags.sampled_refs                55                       # Sample count of references to valid blocks.
system.cpu.icache.tags.avg_refs          398353.436364                       # Average number of references to valid blocks.
system.cpu.icache.tags.warmup_cycle      13719052538010                       # Cycle when the warmup percentage was hit.
system.cpu.icache.tags.occ_blocks::.cpu.inst     2.000000                       # Average occupied blocks per requestor
system.cpu.icache.tags.occ_blocks::.switch_cpus.inst    50.548554                       # Average occupied blocks per requestor
system.cpu.icache.tags.occ_percent::.cpu.inst     0.003906                       # Average percentage of cache occupancy
system.cpu.icache.tags.occ_percent::.switch_cpus.inst     0.098728                       # Average percentage of cache occupancy
system.cpu.icache.tags.occ_percent::total     0.102634                       # Average percentage of cache occupancy
system.cpu.icache.tags.occ_task_id_blocks::1024           55                       # Occupied blocks per task id
system.cpu.icache.tags.age_task_id_blocks_1024::4           55                       # Occupied blocks per task id
system.cpu.icache.tags.occ_task_id_percent::1024     0.107422                       # Percentage of cache occupancy per task id
system.cpu.icache.tags.tag_accesses         175275583                       # Number of tag accesses
system.cpu.icache.tags.data_accesses        175275583                       # Number of data accesses
system.cpu.icache.tags.power_state.pwrStateResidencyTicks::UNDEFINED 13831047340434                       # Cumulative time (in ticks) in various power states
system.cpu.interrupts.clk_domain.clock           5328                       # Clock period in ticks
system.cpu.itb.rdAccesses                           0                       # TLB accesses on read requests
system.cpu.itb.wrAccesses                          29                       # TLB accesses on write requests
system.cpu.itb.rdMisses                             0                       # TLB misses on read requests
system.cpu.itb.wrMisses                             0                       # TLB misses on write requests
system.cpu.itb.walker.power_state.pwrStateResidencyTicks::UNDEFINED 13831047340434                       # Cumulative time (in ticks) in various power states
system.cpu.l2bus.trans_dist::ReadResp         8621233                       # Transaction distribution
system.cpu.l2bus.trans_dist::WritebackDirty     12129254                       # Transaction distribution
system.cpu.l2bus.trans_dist::WritebackClean      2821872                       # Transaction distribution
system.cpu.l2bus.trans_dist::ReadExReq         690212                       # Transaction distribution
system.cpu.l2bus.trans_dist::ReadExResp        690212                       # Transaction distribution
system.cpu.l2bus.trans_dist::ReadSharedReq      8621246                       # Transaction distribution
system.cpu.l2bus.pkt_count_system.cpu.icache.mem_side_port::system.cpu.l2cache.cpu_side_port          110                       # Packet count per connected requestor and responder (bytes)
system.cpu.l2bus.pkt_count_system.cpu.dcache.mem_side_port::system.cpu.l2cache.cpu_side_port     27933671                       # Packet count per connected requestor and responder (bytes)
system.cpu.l2bus.pkt_count::total            27933781                       # Packet count per connected requestor and responder (bytes)
system.cpu.l2bus.pkt_size_system.cpu.icache.mem_side_port::system.cpu.l2cache.cpu_side_port         3520                       # Cumulative packet size per connected requestor and responder (bytes)
system.cpu.l2bus.pkt_size_system.cpu.dcache.mem_side_port::system.cpu.l2cache.cpu_side_port   1191825152                       # Cumulative packet size per connected requestor and responder (bytes)
system.cpu.l2bus.pkt_size::total           1191828672                       # Cumulative packet size per connected requestor and responder (bytes)
system.cpu.l2bus.snoops                       5640248                       # Total snoops (count)
system.cpu.l2bus.snoopTraffic               360975872                       # Total snoop traffic (bytes)
system.cpu.l2bus.snoop_fanout::samples       14951706                       # Request fanout histogram
system.cpu.l2bus.snoop_fanout::mean          0.000051                       # Request fanout histogram
system.cpu.l2bus.snoop_fanout::stdev         0.007153                       # Request fanout histogram
system.cpu.l2bus.snoop_fanout::underflows            0      0.00%      0.00% # Request fanout histogram
system.cpu.l2bus.snoop_fanout::0             14950941     99.99%     99.99% # Request fanout histogram
system.cpu.l2bus.snoop_fanout::1                  765      0.01%    100.00% # Request fanout histogram
system.cpu.l2bus.snoop_fanout::2                    0      0.00%    100.00% # Request fanout histogram
system.cpu.l2bus.snoop_fanout::3                    0      0.00%    100.00% # Request fanout histogram
system.cpu.l2bus.snoop_fanout::overflows            0      0.00%    100.00% # Request fanout histogram
system.cpu.l2bus.snoop_fanout::min_value            0                       # Request fanout histogram
system.cpu.l2bus.snoop_fanout::max_value            1                       # Request fanout histogram
system.cpu.l2bus.snoop_fanout::total         14951706                       # Request fanout histogram
system.cpu.l2bus.power_state.pwrStateResidencyTicks::UNDEFINED 13831047340434                       # Cumulative time (in ticks) in various power states
system.cpu.l2bus.reqLayer0.occupancy      12402281637                       # Layer occupancy (ticks)
system.cpu.l2bus.reqLayer0.utilization           11.1                       # Layer utilization (%)
system.cpu.l2bus.respLayer0.occupancy           52947                       # Layer occupancy (ticks)
system.cpu.l2bus.respLayer0.utilization           0.0                       # Layer utilization (%)
system.cpu.l2bus.respLayer1.occupancy      9302077611                       # Layer occupancy (ticks)
system.cpu.l2bus.respLayer1.utilization           8.3                       # Layer utilization (%)
system.cpu.l2cache.demand_hits::.switch_cpus.data      3667801                       # number of demand (read+write) hits
system.cpu.l2cache.demand_hits::total         3667801                       # number of demand (read+write) hits
system.cpu.l2cache.overall_hits::.switch_cpus.data      3667801                       # number of overall hits
system.cpu.l2cache.overall_hits::total        3667801                       # number of overall hits
system.cpu.l2cache.demand_misses::.cpu.inst            2                       # number of demand (read+write) misses
system.cpu.l2cache.demand_misses::.cpu.data            1                       # number of demand (read+write) misses
system.cpu.l2cache.demand_misses::.switch_cpus.inst           53                       # number of demand (read+write) misses
system.cpu.l2cache.demand_misses::.switch_cpus.data      5643601                       # number of demand (read+write) misses
system.cpu.l2cache.demand_misses::total       5643657                       # number of demand (read+write) misses
system.cpu.l2cache.overall_misses::.cpu.inst            2                       # number of overall misses
system.cpu.l2cache.overall_misses::.cpu.data            1                       # number of overall misses
system.cpu.l2cache.overall_misses::.switch_cpus.inst           53                       # number of overall misses
system.cpu.l2cache.overall_misses::.switch_cpus.data      5643601                       # number of overall misses
system.cpu.l2cache.overall_misses::total      5643657                       # number of overall misses
system.cpu.l2cache.demand_miss_latency::.switch_cpus.inst      3896100                       # number of demand (read+write) miss cycles
system.cpu.l2cache.demand_miss_latency::.switch_cpus.data 1087600110867                       # number of demand (read+write) miss cycles
system.cpu.l2cache.demand_miss_latency::total 1087604006967                       # number of demand (read+write) miss cycles
system.cpu.l2cache.overall_miss_latency::.switch_cpus.inst      3896100                       # number of overall miss cycles
system.cpu.l2cache.overall_miss_latency::.switch_cpus.data 1087600110867                       # number of overall miss cycles
system.cpu.l2cache.overall_miss_latency::total 1087604006967                       # number of overall miss cycles
system.cpu.l2cache.demand_accesses::.cpu.inst            2                       # number of demand (read+write) accesses
system.cpu.l2cache.demand_accesses::.cpu.data            1                       # number of demand (read+write) accesses
system.cpu.l2cache.demand_accesses::.switch_cpus.inst           53                       # number of demand (read+write) accesses
system.cpu.l2cache.demand_accesses::.switch_cpus.data      9311402                       # number of demand (read+write) accesses
system.cpu.l2cache.demand_accesses::total      9311458                       # number of demand (read+write) accesses
system.cpu.l2cache.overall_accesses::.cpu.inst            2                       # number of overall (read+write) accesses
system.cpu.l2cache.overall_accesses::.cpu.data            1                       # number of overall (read+write) accesses
system.cpu.l2cache.overall_accesses::.switch_cpus.inst           53                       # number of overall (read+write) accesses
system.cpu.l2cache.overall_accesses::.switch_cpus.data      9311402                       # number of overall (read+write) accesses
system.cpu.l2cache.overall_accesses::total      9311458                       # number of overall (read+write) accesses
system.cpu.l2cache.demand_miss_rate::.cpu.inst            1                       # miss rate for demand accesses
system.cpu.l2cache.demand_miss_rate::.cpu.data            1                       # miss rate for demand accesses
system.cpu.l2cache.demand_miss_rate::.switch_cpus.inst            1                       # miss rate for demand accesses
system.cpu.l2cache.demand_miss_rate::.switch_cpus.data     0.606096                       # miss rate for demand accesses
system.cpu.l2cache.demand_miss_rate::total     0.606098                       # miss rate for demand accesses
system.cpu.l2cache.overall_miss_rate::.cpu.inst            1                       # miss rate for overall accesses
system.cpu.l2cache.overall_miss_rate::.cpu.data            1                       # miss rate for overall accesses
system.cpu.l2cache.overall_miss_rate::.switch_cpus.inst            1                       # miss rate for overall accesses
system.cpu.l2cache.overall_miss_rate::.switch_cpus.data     0.606096                       # miss rate for overall accesses
system.cpu.l2cache.overall_miss_rate::total     0.606098                       # miss rate for overall accesses
system.cpu.l2cache.demand_avg_miss_latency::.switch_cpus.inst 73511.320755                       # average overall miss latency
system.cpu.l2cache.demand_avg_miss_latency::.switch_cpus.data 192713.856076                       # average overall miss latency
system.cpu.l2cache.demand_avg_miss_latency::total 192712.634196                       # average overall miss latency
system.cpu.l2cache.overall_avg_miss_latency::.switch_cpus.inst 73511.320755                       # average overall miss latency
system.cpu.l2cache.overall_avg_miss_latency::.switch_cpus.data 192713.856076                       # average overall miss latency
system.cpu.l2cache.overall_avg_miss_latency::total 192712.634196                       # average overall miss latency
system.cpu.l2cache.blocked_cycles::no_mshrs            0                       # number of cycles access was blocked
system.cpu.l2cache.blocked_cycles::no_targets            0                       # number of cycles access was blocked
system.cpu.l2cache.blocked::no_mshrs                0                       # number of cycles access was blocked
system.cpu.l2cache.blocked::no_targets              0                       # number of cycles access was blocked
system.cpu.l2cache.avg_blocked_cycles::no_mshrs          nan                       # average number of cycles each access was blocked
system.cpu.l2cache.avg_blocked_cycles::no_targets          nan                       # average number of cycles each access was blocked
system.cpu.l2cache.writebacks::.writebacks      5640248                       # number of writebacks
system.cpu.l2cache.writebacks::total          5640248                       # number of writebacks
system.cpu.l2cache.demand_mshr_misses::.switch_cpus.inst           53                       # number of demand (read+write) MSHR misses
system.cpu.l2cache.demand_mshr_misses::.switch_cpus.data      5643601                       # number of demand (read+write) MSHR misses
system.cpu.l2cache.demand_mshr_misses::total      5643654                       # number of demand (read+write) MSHR misses
system.cpu.l2cache.overall_mshr_misses::.switch_cpus.inst           53                       # number of overall MSHR misses
system.cpu.l2cache.overall_mshr_misses::.switch_cpus.data      5643601                       # number of overall MSHR misses
system.cpu.l2cache.overall_mshr_misses::total      5643654                       # number of overall MSHR misses
system.cpu.l2cache.demand_mshr_miss_latency::.switch_cpus.inst      3878451                       # number of demand (read+write) MSHR miss cycles
system.cpu.l2cache.demand_mshr_miss_latency::.switch_cpus.data 1085720796063                       # number of demand (read+write) MSHR miss cycles
system.cpu.l2cache.demand_mshr_miss_latency::total 1085724674514                       # number of demand (read+write) MSHR miss cycles
system.cpu.l2cache.overall_mshr_miss_latency::.switch_cpus.inst      3878451                       # number of overall MSHR miss cycles
system.cpu.l2cache.overall_mshr_miss_latency::.switch_cpus.data 1085720796063                       # number of overall MSHR miss cycles
system.cpu.l2cache.overall_mshr_miss_latency::total 1085724674514                       # number of overall MSHR miss cycles
system.cpu.l2cache.demand_mshr_miss_rate::.switch_cpus.inst            1                       # mshr miss rate for demand accesses
system.cpu.l2cache.demand_mshr_miss_rate::.switch_cpus.data     0.606096                       # mshr miss rate for demand accesses
system.cpu.l2cache.demand_mshr_miss_rate::total     0.606098                       # mshr miss rate for demand accesses
system.cpu.l2cache.overall_mshr_miss_rate::.switch_cpus.inst            1                       # mshr miss rate for overall accesses
system.cpu.l2cache.overall_mshr_miss_rate::.switch_cpus.data     0.606096                       # mshr miss rate for overall accesses
system.cpu.l2cache.overall_mshr_miss_rate::total     0.606098                       # mshr miss rate for overall accesses
[...]
system.switch_cpus.commit.numCommittedDist::samples    336277240                       # Number of insts commited each cycle
system.switch_cpus.commit.numCommittedDist::mean     0.818300                       # Number of insts commited each cycle
system.switch_cpus.commit.numCommittedDist::stdev     2.173055                       # Number of insts commited each cycle
system.switch_cpus.commit.numCommittedDist::underflows            0      0.00%      0.00% # Number of insts commited each cycle
system.switch_cpus.commit.numCommittedDist::0    274618396     81.66%     81.66% # Number of insts commited each cycle
system.switch_cpus.commit.numCommittedDist::1     18240277      5.42%     87.09% # Number of insts commited each cycle
system.switch_cpus.commit.numCommittedDist::2      7535877      2.24%     89.33% # Number of insts commited each cycle
system.switch_cpus.commit.numCommittedDist::3      4687552      1.39%     90.72% # Number of insts commited each cycle
system.switch_cpus.commit.numCommittedDist::4      3420790      1.02%     91.74% # Number of insts commited each cycle
system.switch_cpus.commit.numCommittedDist::5      1438591      0.43%     92.17% # Number of insts commited each cycle
system.switch_cpus.commit.numCommittedDist::6      1397792      0.42%     92.58% # Number of insts commited each cycle
system.switch_cpus.commit.numCommittedDist::7       965766      0.29%     92.87% # Number of insts commited each cycle
system.switch_cpus.commit.numCommittedDist::8     23972199      7.13%    100.00% # Number of insts commited each cycle
system.switch_cpus.commit.numCommittedDist::overflows            0      0.00%    100.00% # Number of insts commited each cycle
system.switch_cpus.commit.numCommittedDist::min_value            0                       # Number of insts commited each cycle
system.switch_cpus.commit.numCommittedDist::max_value            8                       # Number of insts commited each cycle
system.switch_cpus.commit.numCommittedDist::total    336277240                       # Number of insts commited each cycle
system.switch_cpus.commit.instsCommitted    250000006                       # Number of instructions committed
system.switch_cpus.commit.opsCommitted      275175508                       # Number of ops (including micro ops) committed
system.switch_cpus.commit.memRefs           109119452                       # Number of memory references committed
system.switch_cpus.commit.loads              77817097                       # Number of loads committed
system.switch_cpus.commit.amos                      0                       # Number of atomic instructions committed
system.switch_cpus.commit.membars                   0                       # Number of memory barriers committed
system.switch_cpus.commit.branches            1661411                       # Number of branches committed
system.switch_cpus.commit.vector                    0                       # Number of committed Vector instructions.
system.switch_cpus.commit.floating          237255992                       # Number of committed floating point instructions.
system.switch_cpus.commit.integer           126086381                       # Number of committed integer instructions.
system.switch_cpus.commit.functionCalls             2                       # Number of function calls committed.
system.switch_cpus.commit.committedInstType_0::No_OpClass            0      0.00%      0.00% # Class of committed instruction
system.switch_cpus.commit.committedInstType_0::IntAlu     40323399     14.65%     14.65% # Class of committed instruction
system.switch_cpus.commit.committedInstType_0::IntMult            0      0.00%     14.65% # Class of committed instruction
system.switch_cpus.commit.committedInstType_0::IntDiv            0      0.00%     14.65% # Class of committed instruction
system.switch_cpus.commit.committedInstType_0::FloatAdd            0      0.00%     14.65% # Class of committed instruction
system.switch_cpus.commit.committedInstType_0::FloatCmp            0      0.00%     14.65% # Class of committed instruction
system.switch_cpus.commit.committedInstType_0::FloatCvt            0      0.00%     14.65% # Class of committed instruction
system.switch_cpus.commit.committedInstType_0::FloatMult            0      0.00%     14.65% # Class of committed instruction
system.switch_cpus.commit.committedInstType_0::FloatMultAcc            0      0.00%     14.65% # Class of committed instruction
system.switch_cpus.commit.committedInstType_0::FloatDiv            0      0.00%     14.65% # Class of committed instruction
system.switch_cpus.commit.committedInstType_0::FloatMisc            0      0.00%     14.65% # Class of committed instruction
system.switch_cpus.commit.committedInstType_0::FloatSqrt            0      0.00%     14.65% # Class of committed instruction
system.switch_cpus.commit.committedInstType_0::SimdAdd            0      0.00%     14.65% # Class of committed instruction
system.switch_cpus.commit.committedInstType_0::SimdAddAcc            0      0.00%     14.65% # Class of committed instruction
system.switch_cpus.commit.committedInstType_0::SimdAlu        36864      0.01%     14.67% # Class of committed instruction
system.switch_cpus.commit.committedInstType_0::SimdCmp            0      0.00%     14.67% # Class of committed instruction
system.switch_cpus.commit.committedInstType_0::SimdCvt            0      0.00%     14.67% # Class of committed instruction
system.switch_cpus.commit.committedInstType_0::SimdMisc            0      0.00%     14.67% # Class of committed instruction
system.switch_cpus.commit.committedInstType_0::SimdMult            0      0.00%     14.67% # Class of committed instruction
system.switch_cpus.commit.committedInstType_0::SimdMultAcc            0      0.00%     14.67% # Class of committed instruction
system.switch_cpus.commit.committedInstType_0::SimdShift            0      0.00%     14.67% # Class of committed instruction
system.switch_cpus.commit.committedInstType_0::SimdShiftAcc            0      0.00%     14.67% # Class of committed instruction
system.switch_cpus.commit.committedInstType_0::SimdDiv            0      0.00%     14.67% # Class of committed instruction
system.switch_cpus.commit.committedInstType_0::SimdSqrt            0      0.00%     14.67% # Class of committed instruction
system.switch_cpus.commit.committedInstType_0::SimdFloatAdd     77273263     28.08%     42.75% # Class of committed instruction
system.switch_cpus.commit.committedInstType_0::SimdFloatAlu            0      0.00%     42.75% # Class of committed instruction
system.switch_cpus.commit.committedInstType_0::SimdFloatCmp            0      0.00%     42.75% # Class of committed instruction
system.switch_cpus.commit.committedInstType_0::SimdFloatCvt            0      0.00%     42.75% # Class of committed instruction
system.switch_cpus.commit.committedInstType_0::SimdFloatDiv      1488387      0.54%     43.29% # Class of committed instruction
system.switch_cpus.commit.committedInstType_0::SimdFloatMisc            0      0.00%     43.29% # Class of committed instruction
system.switch_cpus.commit.committedInstType_0::SimdFloatMult     46934143     17.06%     60.35% # Class of committed instruction
system.switch_cpus.commit.committedInstType_0::SimdFloatMultAcc            0      0.00%     60.35% # Class of committed instruction
system.switch_cpus.commit.committedInstType_0::SimdFloatSqrt            0      0.00%     60.35% # Class of committed instruction
system.switch_cpus.commit.committedInstType_0::SimdReduceAdd            0      0.00%     60.35% # Class of committed instruction
system.switch_cpus.commit.committedInstType_0::SimdReduceAlu            0      0.00%     60.35% # Class of committed instruction
system.switch_cpus.commit.committedInstType_0::SimdReduceCmp            0      0.00%     60.35% # Class of committed instruction
system.switch_cpus.commit.committedInstType_0::SimdFloatReduceAdd            0      0.00%     60.35% # Class of committed instruction
system.switch_cpus.commit.committedInstType_0::SimdFloatReduceCmp            0      0.00%     60.35% # Class of committed instruction
system.switch_cpus.commit.committedInstType_0::SimdAes            0      0.00%     60.35% # Class of committed instruction
system.switch_cpus.commit.committedInstType_0::SimdAesMix            0      0.00%     60.35% # Class of committed instruction
system.switch_cpus.commit.committedInstType_0::SimdSha1Hash            0      0.00%     60.35% # Class of committed instruction
system.switch_cpus.commit.committedInstType_0::SimdSha1Hash2            0      0.00%     60.35% # Class of committed instruction
system.switch_cpus.commit.committedInstType_0::SimdSha256Hash            0      0.00%     60.35% # Class of committed instruction
system.switch_cpus.commit.committedInstType_0::SimdSha256Hash2            0      0.00%     60.35% # Class of committed instruction
system.switch_cpus.commit.committedInstType_0::SimdShaSigma2            0      0.00%     60.35% # Class of committed instruction
system.switch_cpus.commit.committedInstType_0::SimdShaSigma3            0      0.00%     60.35% # Class of committed instruction
system.switch_cpus.commit.committedInstType_0::SimdPredAlu            0      0.00%     60.35% # Class of committed instruction
system.switch_cpus.commit.committedInstType_0::MemRead     20823559      7.57%     67.91% # Class of committed instruction
system.switch_cpus.commit.committedInstType_0::MemWrite       129028      0.05%     67.96% # Class of committed instruction
system.switch_cpus.commit.committedInstType_0::FloatMemRead     56993538     20.71%     88.67% # Class of committed instruction
system.switch_cpus.commit.committedInstType_0::FloatMemWrite     31173327     11.33%    100.00% # Class of committed instruction
system.switch_cpus.commit.committedInstType_0::IprAccess            0      0.00%    100.00% # Class of committed instruction
system.switch_cpus.commit.committedInstType_0::InstPrefetch            0      0.00%    100.00% # Class of committed instruction
system.switch_cpus.commit.committedInstType_0::total    275175508                       # Class of committed instruction
system.switch_cpus.commit.commitEligibleSamples     23972199                       # number cycles where commit BW limit reached
system.switch_cpus.decode.idleCycles          4265258                       # Number of cycles decode is idle
system.switch_cpus.decode.blockedCycles     296741082                       # Number of cycles decode is blocked
system.switch_cpus.decode.runCycles          25981297                       # Number of cycles decode is running
system.switch_cpus.decode.unblockCycles       9320452                       # Number of cycles decode is unblocking
system.switch_cpus.decode.squashCycles           7426                       # Number of cycles decode is squashing
system.switch_cpus.decode.branchResolved       608582                       # Number of times decode resolved a  branch
system.switch_cpus.decode.branchMispred             5                       # Number of times decode detected a branch misprediction
system.switch_cpus.decode.decodedInsts      275489962                       # Number of instructions handled by decode
system.switch_cpus.decode.squashedInsts            28                       # Number of squashed instructions handled by decode
system.switch_cpus.dtb.rdAccesses            77975403                       # TLB accesses on read requests
system.switch_cpus.dtb.wrAccesses            31308060                       # TLB accesses on write requests
system.switch_cpus.dtb.rdMisses                 83157                       # TLB misses on read requests
system.switch_cpus.dtb.wrMisses                  5063                       # TLB misses on write requests
system.switch_cpus.dtb.walker.power_state.pwrStateResidencyTicks::UNDEFINED 13831047340434                       # Cumulative time (in ticks) in various power states
system.switch_cpus.fetch.icacheStallCycles        12444                       # Number of cycles fetch is stalled on an Icache miss
system.switch_cpus.fetch.insts              250591066                       # Number of instructions fetch has processed
system.switch_cpus.fetch.branches             1666928                       # Number of branches that fetch encountered
system.switch_cpus.fetch.predictedBranches       613642                       # Number of branches that fetch has predicted taken
system.switch_cpus.fetch.cycles             336295714                       # Number of cycles fetch has run and was not squashing or blocked
system.switch_cpus.fetch.squashCycles           14862                       # Number of cycles fetch has spent squashing
system.switch_cpus.fetch.cacheLines          21909412                       # Number of cache lines fetched
system.switch_cpus.fetch.icacheSquashes             9                       # Number of outstanding Icache misses that were squashed
system.switch_cpus.fetch.nisnDist::samples    336315589                       # Number of instructions fetched each cycle (Total)
system.switch_cpus.fetch.nisnDist::mean      0.820107                       # Number of instructions fetched each cycle (Total)
system.switch_cpus.fetch.nisnDist::stdev     2.221358                       # Number of instructions fetched each cycle (Total)
system.switch_cpus.fetch.nisnDist::underflows            0      0.00%      0.00% # Number of instructions fetched each cycle (Total)
system.switch_cpus.fetch.nisnDist::0        290405682     86.35%     86.35% # Number of instructions fetched each cycle (Total)
system.switch_cpus.fetch.nisnDist::1          2442077      0.73%     87.08% # Number of instructions fetched each cycle (Total)
system.switch_cpus.fetch.nisnDist::2          2030471      0.60%     87.68% # Number of instructions fetched each cycle (Total)
system.switch_cpus.fetch.nisnDist::3          2600146      0.77%     88.45% # Number of instructions fetched each cycle (Total)
system.switch_cpus.fetch.nisnDist::4          4894795      1.46%     89.91% # Number of instructions fetched each cycle (Total)
system.switch_cpus.fetch.nisnDist::5          6254793      1.86%     91.77% # Number of instructions fetched each cycle (Total)
system.switch_cpus.fetch.nisnDist::6          3854236      1.15%     92.91% # Number of instructions fetched each cycle (Total)
system.switch_cpus.fetch.nisnDist::7          3134462      0.93%     93.85% # Number of instructions fetched each cycle (Total)
system.switch_cpus.fetch.nisnDist::8         20698927      6.15%    100.00% # Number of instructions fetched each cycle (Total)
system.switch_cpus.fetch.nisnDist::overflows            0      0.00%    100.00% # Number of instructions fetched each cycle (Total)
system.switch_cpus.fetch.nisnDist::min_value            0                       # Number of instructions fetched each cycle (Total)
system.switch_cpus.fetch.nisnDist::max_value            8                       # Number of instructions fetched each cycle (Total)
system.switch_cpus.fetch.nisnDist::total    336315589                       # Number of instructions fetched each cycle (Total)
system.switch_cpus.fetch.branchRate          0.004956                       # Number of branch fetches per cycle
system.switch_cpus.fetch.rate                0.745096                       # Number of inst fetches per cycle
system.switch_cpus.itb.rdAccesses                   0                       # TLB accesses on read requests
system.switch_cpus.itb.wrAccesses            21909412                       # TLB accesses on write requests
system.switch_cpus.itb.rdMisses                     0                       # TLB misses on read requests
system.switch_cpus.itb.wrMisses                     4                       # TLB misses on write requests
system.switch_cpus.itb.walker.power_state.pwrStateResidencyTicks::UNDEFINED 13831047340434                       # Cumulative time (in ticks) in various power states
system.switch_cpus.lsq0.forwLoads             9154203                       # Number of loads that had data forwarded from stores
system.switch_cpus.lsq0.squashedLoads          169298                       # Number of loads squashed
system.switch_cpus.lsq0.ignoredResponses            2                       # Number of memory responses ignored because the instruction is squashed
system.switch_cpus.lsq0.memOrderViolation         1993                       # Number of memory ordering violations
system.switch_cpus.lsq0.squashedStores          52797                       # Number of stores squashed
system.switch_cpus.lsq0.rescheduledLoads            0                       # Number of loads that were rescheduled
system.switch_cpus.lsq0.blockedByCache        3966206                       # Number of times an access to memory failed due to the cache being blocked
system.switch_cpus.power_state.pwrStateResidencyTicks::OFF 111994802757                       # Cumulative time (in ticks) in various power states
system.switch_cpus.rename.squashCycles           7426                       # Number of cycles rename is squashing
system.switch_cpus.rename.idleCycles          8300760                       # Number of cycles rename is idle
system.switch_cpus.rename.blockCycles       111706497                       # Number of cycles rename is blocking
system.switch_cpus.rename.serializeStallCycles            0                       # count of cycles rename stalledfor serializing inst
system.switch_cpus.rename.runCycles          31153468                       # Number of cycles rename is running
system.switch_cpus.rename.unblockCycles     185147364                       # Number of cycles rename is unblocking
system.switch_cpus.rename.renamedInsts      275459405                       # Number of instructions processed by rename
system.switch_cpus.rename.IQFullEvents       13135158                       # Number of times rename has blocked due to IQ full
system.switch_cpus.rename.LQFullEvents      124271709                       # Number of times rename has blocked due to LQ full
system.switch_cpus.rename.SQFullEvents       52909167                       # Number of times rename has blocked due to SQ full
system.switch_cpus.rename.renamedOperands    246865360                       # Number of destination operands rename has renamed
system.switch_cpus.rename.lookups           837245175                       # Number of register rename lookups that rename has made
system.switch_cpus.rename.intLookups        254751118                       # Number of integer rename lookups
system.switch_cpus.rename.fpLookups         455205032                       # Number of floating rename lookups
system.switch_cpus.rename.committedMaps     246626106                       # Number of HB maps that are committed
system.switch_cpus.rename.undoneMaps           239166                       # Number of HB maps that are undone due to squashing
system.switch_cpus.rename.serializing               0                       # count of serializing insts renamed
system.switch_cpus.rename.tempSerializing            0                       # count of temporary serializing insts renamed
system.switch_cpus.rename.skidInsts          49442612                       # count of insts added to the skid buffer
system.switch_cpus.rob.reads                587750288                       # The number of ROB reads
system.switch_cpus.rob.writes               550928934                       # The number of ROB writes
system.switch_cpus.thread0.numInsts         250000006                       # Number of Instructions committed
system.switch_cpus.thread0.numOps           275175508                       # Number of Ops committed
system.switch_cpus.thread0.numMemRefs               0                       # Number of Memory References
system.voltage_domain.voltage                       1                       # Voltage in Volts

---------- End Simulation Statistics   ----------
