Command line:
./runscript_pride.sh mcf RFM5.BR1.4C 4 2017 --rh_defense --rh_mitigation=RFM --rh_rfm_per_trefi=5 --rh_rfm_blast_radius=1 --rh_rfm_maxacts_per_trefi=79
Global frequency set at 1000000000000 ticks per second
RFM details - rfm_act_threshold: 15, blast_radius: 1, delay_per_rfm: 175000 ps. sample_rate: 0.062500
RH Defense config: RFM, Bus Delay: 0, rfms_per_trefi: 5, rfm_act_threshold: 15, blast_radius: 1,rfm_delay_per_act: 45000 ps.
DRAM config: RowsPerBank: 65536, BanksPerRank: 32, RanksPerChannel: 1
warn: Sockets disabled, not accepting gdb connections
warn: CoherentXBar system.cpu0.mmucache.mmubus has no snooping ports attached!
warn: CoherentXBar system.cpu1.mmucache.mmubus has no snooping ports attached!
warn: CoherentXBar system.cpu2.mmucache.mmubus has no snooping ports attached!
warn: CoherentXBar system.cpu3.mmucache.mmubus has no snooping ports attached!
warn: Checkpoints for file descriptors currently do not work.
warn: Checkpoints for file descriptors currently do not work.
warn: Checkpoints for file descriptors currently do not work.
warn: Checkpoints for file descriptors currently do not work.
gem5 Simulator System.  http://gem5.org
gem5 is copyrighted software; use the --copyright option for details.

gem5 version 20.1.0.5
gem5 compiled Jul 12 2024 12:42:38
gem5 started Jul 31 2024 17:48:01
gem5 executing on a07dda8b130c, pid 241584
command line: /home/user/PrIDE/performance/gem5/build/X86/gem5.opt --outdir=/home/user/PrIDE/performance/gem5/stats/pride_multiprogram_16GBmem_250Mn.SPEC2017.C4/RFM5.BR1.4C/mcf /home/user/PrIDE/performance/gem5/configs/example/se_rq_spec_config_multicore.py --redirects /lib64=/home/utils/gcc-6.2.0/lib64 --benchmark=mcf --benchmark_stdout=/home/user/PrIDE/performance/gem5/stats/pride_multiprogram_16GBmem_250Mn.SPEC2017.C4/RFM5.BR1.4C/mcf/mcf.out --benchmark_stderr=/home/user/PrIDE/performance/gem5/stats/pride_multiprogram_16GBmem_250Mn.SPEC2017.C4/RFM5.BR1.4C/mcf/mcf.err --spec-version=2017 --rh_defense --rh_mitigation=RFM --rh_rfm_per_trefi=5 --rh_rfm_blast_radius=1 --rh_rfm_maxacts_per_trefi=79 --num-cpus=4 --mem-size=16GB --mem-type=DDR5_2400_32x4 --mem-ranks=1 --mem-channels=1 --checkpoint-dir=/home/user/PrIDE/performance/gem5/cpts-DDR5/multiprogram_16GBmem_25Bn.SPEC2017.C4/mcf-1-ref-x86 --checkpoint-restore=25000000000 --at-instruction --cpu-type DerivO3CPU --caches --l2cache --l1d_size=32kB --l1i_size=32kB --l2_size=256kB --l3_size=4MB --l1d_assoc=8 --l1i_assoc=8 --l2_assoc=16 --l3_assoc=16 --cpu-clock=3GHz --sys-clock=3GHz --maxinsts=250000000 --prog-interval=300Hz

info: Standard input is not a terminal, disabling listeners.
Benchmark- 0   mcf
Selected benchmark
--> mcf
CMD: ['/opt/spec2017/benchspec/CPU/505.mcf_r/run/run_base_refrate_gem5_se-m64.0000/mcf_r_base.gem5_se-m64', '/opt/spec2017/benchspec/CPU/505.mcf_r/run/run_base_refrate_gem5_se-m64.0000/inp.in']
CWD: /opt/spec2017/benchspec/CPU/505.mcf_r/run/run_base_refrate_gem5_se-m64.0000/
Process stdout file: /home/user/PrIDE/performance/gem5/stats/pride_multiprogram_16GBmem_250Mn.SPEC2017.C4/RFM5.BR1.4C/mcf/mcf.out_0
Process stderr file: /home/user/PrIDE/performance/gem5/stats/pride_multiprogram_16GBmem_250Mn.SPEC2017.C4/RFM5.BR1.4C/mcf/mcf.err_0
Benchmark- 1   mcf
Selected benchmark
--> mcf
CMD: ['/opt/spec2017/benchspec/CPU/505.mcf_r/run/run_base_refrate_gem5_se-m64.0000/mcf_r_base.gem5_se-m64', '/opt/spec2017/benchspec/CPU/505.mcf_r/run/run_base_refrate_gem5_se-m64.0000/inp.in']
CWD: /opt/spec2017/benchspec/CPU/505.mcf_r/run/run_base_refrate_gem5_se-m64.0000/
Process stdout file: /home/user/PrIDE/performance/gem5/stats/pride_multiprogram_16GBmem_250Mn.SPEC2017.C4/RFM5.BR1.4C/mcf/mcf.out_1
Process stderr file: /home/user/PrIDE/performance/gem5/stats/pride_multiprogram_16GBmem_250Mn.SPEC2017.C4/RFM5.BR1.4C/mcf/mcf.err_1
Benchmark- 2   mcf
Selected benchmark
--> mcf
CMD: ['/opt/spec2017/benchspec/CPU/505.mcf_r/run/run_base_refrate_gem5_se-m64.0000/mcf_r_base.gem5_se-m64', '/opt/spec2017/benchspec/CPU/505.mcf_r/run/run_base_refrate_gem5_se-m64.0000/inp.in']
CWD: /opt/spec2017/benchspec/CPU/505.mcf_r/run/run_base_refrate_gem5_se-m64.0000/
Process stdout file: /home/user/PrIDE/performance/gem5/stats/pride_multiprogram_16GBmem_250Mn.SPEC2017.C4/RFM5.BR1.4C/mcf/mcf.out_2
Process stderr file: /home/user/PrIDE/performance/gem5/stats/pride_multiprogram_16GBmem_250Mn.SPEC2017.C4/RFM5.BR1.4C/mcf/mcf.err_2
Benchmark- 3   mcf
Selected benchmark
--> mcf
CMD: ['/opt/spec2017/benchspec/CPU/505.mcf_r/run/run_base_refrate_gem5_se-m64.0000/mcf_r_base.gem5_se-m64', '/opt/spec2017/benchspec/CPU/505.mcf_r/run/run_base_refrate_gem5_se-m64.0000/inp.in']
CWD: /opt/spec2017/benchspec/CPU/505.mcf_r/run/run_base_refrate_gem5_se-m64.0000/
Process stdout file: /home/user/PrIDE/performance/gem5/stats/pride_multiprogram_16GBmem_250Mn.SPEC2017.C4/RFM5.BR1.4C/mcf/mcf.out_3
Process stderr file: /home/user/PrIDE/performance/gem5/stats/pride_multiprogram_16GBmem_250Mn.SPEC2017.C4/RFM5.BR1.4C/mcf/mcf.err_3
Workload-0: 
['/opt/spec2017/benchspec/CPU/505.mcf_r/run/run_base_refrate_gem5_se-m64.0000/mcf_r_base.gem5_se-m64', '/opt/spec2017/benchspec/CPU/505.mcf_r/run/run_base_refrate_gem5_se-m64.0000/inp.in']
Workload-1: 
['/opt/spec2017/benchspec/CPU/505.mcf_r/run/run_base_refrate_gem5_se-m64.0000/mcf_r_base.gem5_se-m64', '/opt/spec2017/benchspec/CPU/505.mcf_r/run/run_base_refrate_gem5_se-m64.0000/inp.in']
Workload-2: 
['/opt/spec2017/benchspec/CPU/505.mcf_r/run/run_base_refrate_gem5_se-m64.0000/mcf_r_base.gem5_se-m64', '/opt/spec2017/benchspec/CPU/505.mcf_r/run/run_base_refrate_gem5_se-m64.0000/inp.in']
Workload-3: 
['/opt/spec2017/benchspec/CPU/505.mcf_r/run/run_base_refrate_gem5_se-m64.0000/mcf_r_base.gem5_se-m64', '/opt/spec2017/benchspec/CPU/505.mcf_r/run/run_base_refrate_gem5_se-m64.0000/inp.in']
defense_enable:  True  detector:  MG  mitigation:  RFM  threshold:  800
mg_entries:  1700
rfm_maxacts_per_trefi:  79 rfm_per_trefi:  5 rfm_blast_radius:  1
Switch at curTick count:10000
warn: membus.master is deprecated. `master` is now called `mem_side_ports`
warn: No dot file generated. Please install pydot to generate the dot file and pdf.
info: Entering event queue @ 16815150905778.  Starting simulation...
warn: PowerState: Already in the requested power state, request ignored
Switched CPUS @ tick 16815150915778
switching cpus
**** REAL SIMULATION ****
info: Entering event queue @ 16815150915778.  Starting simulation...
16818484239111: Event_285: system.switch_cpus3 progress event, total committed:9055780, progress insts committed: 9055780, IPC: 0.904672
16818484239111: Event_284: system.switch_cpus2 progress event, total committed:9061473, progress insts committed: 9061473, IPC: 0.905241
16818484239111: Event_283: system.switch_cpus1 progress event, total committed:9058915, progress insts committed: 9058915, IPC: 0.904986
16818484239111: Event_282: system.switch_cpus0 progress event, total committed:9059941, progress insts committed: 9059941, IPC: 0.905088
16821817572444: Event_282: system.switch_cpus0 progress event, total committed:18856385, progress insts committed: 9796444, IPC: 0.978665
16821817572444: Event_283: system.switch_cpus1 progress event, total committed:18851939, progress insts committed: 9793024, IPC: 0.978323
16821817572444: Event_284: system.switch_cpus2 progress event, total committed:18858804, progress insts committed: 9797331, IPC: 0.978753
16821817572444: Event_285: system.switch_cpus3 progress event, total committed:18851340, progress insts committed: 9795560, IPC: 0.978576
16825150905777: Event_285: system.switch_cpus3 progress event, total committed:29055830, progress insts committed: 10204490, IPC: 01.01943
16825150905777: Event_284: system.switch_cpus2 progress event, total committed:29076041, progress insts committed: 10217237, IPC: 001.0207
16825150905777: Event_283: system.switch_cpus1 progress event, total committed:29055951, progress insts committed: 10204012, IPC: 01.01938
16825150905777: Event_282: system.switch_cpus0 progress event, total committed:29061631, progress insts committed: 10205246, IPC: 001.0195
16828484239110: Event_282: system.switch_cpus0 progress event, total committed:39330839, progress insts committed: 10269208, IPC: 01.02589
16828484239110: Event_283: system.switch_cpus1 progress event, total committed:39319336, progress insts committed: 10263385, IPC: 01.02531
16828484239110: Event_284: system.switch_cpus2 progress event, total committed:39377279, progress insts committed: 10301238, IPC: 01.02909
16828484239110: Event_285: system.switch_cpus3 progress event, total committed:39320660, progress insts committed: 10264830, IPC: 01.02546
16831817572443: Event_285: system.switch_cpus3 progress event, total committed:49561614, progress insts committed: 10240954, IPC: 01.02307
16831817572443: Event_284: system.switch_cpus2 progress event, total committed:49937571, progress insts committed: 10560292, IPC: 01.05497
16831817572443: Event_283: system.switch_cpus1 progress event, total committed:49558051, progress insts committed: 10238715, IPC: 01.02285
16831817572443: Event_282: system.switch_cpus0 progress event, total committed:49573549, progress insts committed: 10242710, IPC: 01.02325
16835150905776: Event_282: system.switch_cpus0 progress event, total committed:59782602, progress insts committed: 10209053, IPC: 01.01988
16835150905776: Event_283: system.switch_cpus1 progress event, total committed:59731725, progress insts committed: 10173674, IPC: 01.01635
16835150905776: Event_284: system.switch_cpus2 progress event, total committed:61287972, progress insts committed: 11350401, IPC: 01.13391
16835150905776: Event_285: system.switch_cpus3 progress event, total committed:59742301, progress insts committed: 10180687, IPC: 01.01705
16838484239109: Event_285: system.switch_cpus3 progress event, total committed:69960126, progress insts committed: 10217825, IPC: 01.02076
16838484239109: Event_284: system.switch_cpus2 progress event, total committed:71609902, progress insts committed: 10321930, IPC: 01.03116
16838484239109: Event_283: system.switch_cpus1 progress event, total committed:69947979, progress insts committed: 10216254, IPC: 001.0206
16838484239109: Event_282: system.switch_cpus0 progress event, total committed:70597217, progress insts committed: 10814615, IPC: 01.08038
16841817572442: Event_282: system.switch_cpus0 progress event, total committed:81869281, progress insts committed: 11272064, IPC: 01.12608
16841817572442: Event_283: system.switch_cpus1 progress event, total committed:80244272, progress insts committed: 10296293, IPC: 001.0286
16841817572442: Event_284: system.switch_cpus2 progress event, total committed:81923650, progress insts committed: 10313748, IPC: 01.03034
16841817572442: Event_285: system.switch_cpus3 progress event, total committed:80275352, progress insts committed: 10315226, IPC: 01.03049
16845150905775: Event_285: system.switch_cpus3 progress event, total committed:90715207, progress insts committed: 10439855, IPC: 01.04294
16845150905775: Event_284: system.switch_cpus2 progress event, total committed:92158966, progress insts committed: 10235316, IPC: 01.02251
16845150905775: Event_283: system.switch_cpus1 progress event, total committed:90464131, progress insts committed: 10219859, IPC: 01.02096
16845150905775: Event_282: system.switch_cpus0 progress event, total committed:92141390, progress insts committed: 10272109, IPC: 01.02618
16848484239108: Event_282: system.switch_cpus0 progress event, total committed:102502576, progress insts committed: 10361186, IPC: 01.03508
16848484239108: Event_283: system.switch_cpus1 progress event, total committed:100832250, progress insts committed: 10368119, IPC: 01.03578
16848484239108: Event_284: system.switch_cpus2 progress event, total committed:102519955, progress insts committed: 10360989, IPC: 01.03506
16848484239108: Event_285: system.switch_cpus3 progress event, total committed:102367291, progress insts committed: 11652084, IPC: 01.16404
16851817572441: Event_285: system.switch_cpus3 progress event, total committed:112661749, progress insts committed: 10294458, IPC: 01.02842
16851817572441: Event_284: system.switch_cpus2 progress event, total committed:112710518, progress insts committed: 10190563, IPC: 01.01804
16851817572441: Event_283: system.switch_cpus1 progress event, total committed:111187303, progress insts committed: 10355053, IPC: 01.03447
16851817572441: Event_282: system.switch_cpus0 progress event, total committed:112682683, progress insts committed: 10180107, IPC: 01.01699
16855150905774: Event_282: system.switch_cpus0 progress event, total committed:123056071, progress insts committed: 10373388, IPC: 001.0363
16855150905774: Event_283: system.switch_cpus1 progress event, total committed:122953707, progress insts committed: 11766404, IPC: 01.17546
16855150905774: Event_284: system.switch_cpus2 progress event, total committed:123097054, progress insts committed: 10386536, IPC: 01.03761
16855150905774: Event_285: system.switch_cpus3 progress event, total committed:123041346, progress insts committed: 10379597, IPC: 01.03692
16858484239107: Event_285: system.switch_cpus3 progress event, total committed:129954849, progress insts committed: 6913503, IPC: 0.690659
16858484239107: Event_284: system.switch_cpus2 progress event, total committed:129982033, progress insts committed: 6884979, IPC: 0.687809
16858484239107: Event_283: system.switch_cpus1 progress event, total committed:129940594, progress insts committed: 6986887, IPC: 00.69799
16858484239107: Event_282: system.switch_cpus0 progress event, total committed:129957447, progress insts committed: 6901376, IPC: 0.689447
16861817572440: Event_282: system.switch_cpus0 progress event, total committed:132256271, progress insts committed: 2298824, IPC: 0.229653
16861817572440: Event_283: system.switch_cpus1 progress event, total committed:132155542, progress insts committed: 2214948, IPC: 0.221273
16861817572440: Event_284: system.switch_cpus2 progress event, total committed:133314444, progress insts committed: 3332411, IPC: 0.332908
16861817572440: Event_285: system.switch_cpus3 progress event, total committed:132233967, progress insts committed: 2279118, IPC: 0.227684
16865150905773: Event_285: system.switch_cpus3 progress event, total committed:143268610, progress insts committed: 11034643, IPC: 01.10236
16865150905773: Event_284: system.switch_cpus2 progress event, total committed:144304197, progress insts committed: 10989753, IPC: 01.09788
16865150905773: Event_283: system.switch_cpus1 progress event, total committed:142571843, progress insts committed: 10416301, IPC: 01.04059
16865150905773: Event_282: system.switch_cpus0 progress event, total committed:143814196, progress insts committed: 11557925, IPC: 01.15464
16868484239106: Event_282: system.switch_cpus0 progress event, total committed:155367732, progress insts committed: 11553536, IPC: 001.1542
16868484239106: Event_283: system.switch_cpus1 progress event, total committed:154091766, progress insts committed: 11519923, IPC: 01.15084
16868484239106: Event_284: system.switch_cpus2 progress event, total committed:156062547, progress insts committed: 11758350, IPC: 01.17466
16868484239106: Event_285: system.switch_cpus3 progress event, total committed:154394545, progress insts committed: 11125935, IPC: 01.11148
16871817572439: Event_285: system.switch_cpus3 progress event, total committed:166083706, progress insts committed: 11689161, IPC: 01.16775
16871817572439: Event_284: system.switch_cpus2 progress event, total committed:167460725, progress insts committed: 11398178, IPC: 01.13868
16871817572439: Event_283: system.switch_cpus1 progress event, total committed:165637542, progress insts committed: 11545776, IPC: 01.15342
16871817572439: Event_282: system.switch_cpus0 progress event, total committed:166658279, progress insts committed: 11290547, IPC: 01.12793
16875150905772: Event_282: system.switch_cpus0 progress event, total committed:178015548, progress insts committed: 11357269, IPC: 01.13459
16875150905772: Event_283: system.switch_cpus1 progress event, total committed:176913415, progress insts committed: 11275873, IPC: 01.12646
16875150905772: Event_284: system.switch_cpus2 progress event, total committed:178573562, progress insts committed: 11112837, IPC: 01.11017
16875150905772: Event_285: system.switch_cpus3 progress event, total committed:177970688, progress insts committed: 11886982, IPC: 01.18751
16878484239105: Event_285: system.switch_cpus3 progress event, total committed:189781614, progress insts committed: 11810926, IPC: 01.17991
16878484239105: Event_284: system.switch_cpus2 progress event, total committed:189925495, progress insts committed: 11351933, IPC: 01.13406
16878484239105: Event_283: system.switch_cpus1 progress event, total committed:188563814, progress insts committed: 11650399, IPC: 01.16387
16878484239105: Event_282: system.switch_cpus0 progress event, total committed:189806563, progress insts committed: 11791015, IPC: 01.17792
16881817572438: Event_282: system.switch_cpus0 progress event, total committed:201091853, progress insts committed: 11285290, IPC: 001.1274
16881817572438: Event_283: system.switch_cpus1 progress event, total committed:200060684, progress insts committed: 11496870, IPC: 01.14854
16881817572438: Event_284: system.switch_cpus2 progress event, total committed:201727805, progress insts committed: 11802310, IPC: 01.17905
16881817572438: Event_285: system.switch_cpus3 progress event, total committed:200964285, progress insts committed: 11182671, IPC: 01.11715
16885150905771: Event_285: system.switch_cpus3 progress event, total committed:212260833, progress insts committed: 11296548, IPC: 01.12853
16885150905771: Event_284: system.switch_cpus2 progress event, total committed:213698188, progress insts committed: 11970383, IPC: 01.19584
16885150905771: Event_283: system.switch_cpus1 progress event, total committed:211751301, progress insts committed: 11690617, IPC: 01.16789
16885150905771: Event_282: system.switch_cpus0 progress event, total committed:212498349, progress insts committed: 11406496, IPC: 01.13951
16888484239104: Event_282: system.switch_cpus0 progress event, total committed:223826017, progress insts committed: 11327668, IPC: 01.13163
16888484239104: Event_283: system.switch_cpus1 progress event, total committed:223491678, progress insts committed: 11740377, IPC: 01.17286
16888484239104: Event_284: system.switch_cpus2 progress event, total committed:225211074, progress insts committed: 11512886, IPC: 01.15014
16888484239104: Event_285: system.switch_cpus3 progress event, total committed:223669586, progress insts committed: 11408753, IPC: 01.13973
16891817572437: Event_285: system.switch_cpus3 progress event, total committed:235470412, progress insts committed: 11800826, IPC: 001.1789
16891817572437: Event_284: system.switch_cpus2 progress event, total committed:236347523, progress insts committed: 11136449, IPC: 01.11253
16891817572437: Event_283: system.switch_cpus1 progress event, total committed:234533281, progress insts committed: 11041603, IPC: 01.10306
16891817572437: Event_282: system.switch_cpus0 progress event, total committed:235558884, progress insts committed: 11732867, IPC: 01.17211
16895150905770: Event_282: system.switch_cpus0 progress event, total committed:247379010, progress insts committed: 11820126, IPC: 01.18083
16895150905770: Event_283: system.switch_cpus1 progress event, total committed:245845733, progress insts committed: 11312452, IPC: 01.13011
16895150905770: Event_284: system.switch_cpus2 progress event, total committed:247601556, progress insts committed: 11254033, IPC: 01.12428
16895150905770: Event_285: system.switch_cpus3 progress event, total committed:247174805, progress insts committed: 11704393, IPC: 01.16927
16898484239103: Event_285: system.switch_cpus3 progress event, total committed:258699869, progress insts committed: 11525064, IPC: 01.15135
16898484239103: Event_284: system.switch_cpus2 progress event, total committed:259373629, progress insts committed: 11772073, IPC: 01.17603
16898484239103: Event_283: system.switch_cpus1 progress event, total committed:257437734, progress insts committed: 11592001, IPC: 01.15804
16898484239103: Event_282: system.switch_cpus0 progress event, total committed:259012846, progress insts committed: 11633836, IPC: 01.16222
16901817572436: Event_282: system.switch_cpus0 progress event, total committed:270108782, progress insts committed: 11095936, IPC: 01.10848
16901817572436: Event_283: system.switch_cpus1 progress event, total committed:269325331, progress insts committed: 11887597, IPC: 01.18757
16901817572436: Event_284: system.switch_cpus2 progress event, total committed:271014507, progress insts committed: 11640878, IPC: 01.16292
16901817572436: Event_285: system.switch_cpus3 progress event, total committed:269917881, progress insts committed: 11218012, IPC: 01.12068
16905150905769: Event_285: system.switch_cpus3 progress event, total committed:281275125, progress insts committed: 11357244, IPC: 01.13459
16905150905769: Event_284: system.switch_cpus2 progress event, total committed:282476340, progress insts committed: 11461833, IPC: 01.14504
16905150905769: Event_283: system.switch_cpus1 progress event, total committed:281139027, progress insts committed: 11813696, IPC: 01.18019
16905150905769: Event_282: system.switch_cpus0 progress event, total committed:281289920, progress insts committed: 11181138, IPC: 0001.117
16908484239102: Event_282: system.switch_cpus0 progress event, total committed:293099224, progress insts committed: 11809304, IPC: 01.17975
16908484239102: Event_283: system.switch_cpus1 progress event, total committed:292441282, progress insts committed: 11302255, IPC: 001.1291
16908484239102: Event_284: system.switch_cpus2 progress event, total committed:294028213, progress insts committed: 11551873, IPC: 01.15403
16908484239102: Event_285: system.switch_cpus3 progress event, total committed:293077769, progress insts committed: 11802644, IPC: 01.17908
16911817572435: Event_285: system.switch_cpus3 progress event, total committed:304577925, progress insts committed: 11500156, IPC: 01.14887
16911817572435: Event_284: system.switch_cpus2 progress event, total committed:305428078, progress insts committed: 11399865, IPC: 01.13885
16911817572435: Event_283: system.switch_cpus1 progress event, total committed:303584066, progress insts committed: 11142784, IPC: 01.11316
16911817572435: Event_282: system.switch_cpus0 progress event, total committed:304855035, progress insts committed: 11755811, IPC: 01.17441
16915150905768: Event_282: system.switch_cpus0 progress event, total committed:316110617, progress insts committed: 11255582, IPC: 01.12443
16915150905768: Event_283: system.switch_cpus1 progress event, total committed:314956418, progress insts committed: 11372352, IPC: 001.1361
16915150905768: Event_284: system.switch_cpus2 progress event, total committed:316928107, progress insts committed: 11500029, IPC: 01.14885
16915150905768: Event_285: system.switch_cpus3 progress event, total committed:315704674, progress insts committed: 11126749, IPC: 01.11156
16918484239101: Event_285: system.switch_cpus3 progress event, total committed:327051643, progress insts committed: 11346969, IPC: 01.13356
16918484239101: Event_284: system.switch_cpus2 progress event, total committed:328691596, progress insts committed: 11763489, IPC: 01.17517
16918484239101: Event_283: system.switch_cpus1 progress event, total committed:326723028, progress insts committed: 11766610, IPC: 01.17548
16918484239101: Event_282: system.switch_cpus0 progress event, total committed:327559740, progress insts committed: 11449123, IPC: 01.14377
16921817572434: Event_282: system.switch_cpus0 progress event, total committed:338874827, progress insts committed: 11315087, IPC: 01.13038
16921817572434: Event_283: system.switch_cpus1 progress event, total committed:337934140, progress insts committed: 11211112, IPC: 01.11999
16921817572434: Event_284: system.switch_cpus2 progress event, total committed:339892279, progress insts committed: 11200683, IPC: 01.11895
16921817572434: Event_285: system.switch_cpus3 progress event, total committed:338705601, progress insts committed: 11653958, IPC: 01.16423
16925150905767: Event_285: system.switch_cpus3 progress event, total committed:350659909, progress insts committed: 11954308, IPC: 01.19424
16925150905767: Event_284: system.switch_cpus2 progress event, total committed:351236173, progress insts committed: 11343894, IPC: 01.13326
16925150905767: Event_283: system.switch_cpus1 progress event, total committed:349230359, progress insts committed: 11296219, IPC: 01.12849
16925150905767: Event_282: system.switch_cpus0 progress event, total committed:350700313, progress insts committed: 11825486, IPC: 01.18137
16928484239100: Event_282: system.switch_cpus0 progress event, total committed:362389455, progress insts committed: 11689142, IPC: 01.16775
16928484239100: Event_283: system.switch_cpus1 progress event, total committed:360696535, progress insts committed: 11466176, IPC: 01.14547
16928484239100: Event_284: system.switch_cpus2 progress event, total committed:362638478, progress insts committed: 11402305, IPC: 01.13909
16928484239100: Event_285: system.switch_cpus3 progress event, total committed:362285682, progress insts committed: 11625773, IPC: 01.16141
16931817572433: Event_285: system.switch_cpus3 progress event, total committed:372783547, progress insts committed: 10497865, IPC: 01.04874
16931817572433: Event_284: system.switch_cpus2 progress event, total committed:373800442, progress insts committed: 11161964, IPC: 01.11508
16931817572433: Event_283: system.switch_cpus1 progress event, total committed:372155908, progress insts committed: 11459373, IPC: 01.14479
16931817572433: Event_282: system.switch_cpus0 progress event, total committed:372790005, progress insts committed: 10400550, IPC: 01.03901
16935150905766: Event_282: system.switch_cpus0 progress event, total committed:384377134, progress insts committed: 11587129, IPC: 01.15755
16935150905766: Event_283: system.switch_cpus1 progress event, total committed:383589507, progress insts committed: 11433599, IPC: 01.14222
16935150905766: Event_284: system.switch_cpus2 progress event, total committed:385015367, progress insts committed: 11214925, IPC: 01.12037
16935150905766: Event_285: system.switch_cpus3 progress event, total committed:384377427, progress insts committed: 11593880, IPC: 01.15823
16938484239099: Event_285: system.switch_cpus3 progress event, total committed:396292128, progress insts committed: 11914701, IPC: 01.19028
16938484239099: Event_284: system.switch_cpus2 progress event, total committed:396597489, progress insts committed: 11582122, IPC: 01.15705
16938484239099: Event_283: system.switch_cpus1 progress event, total committed:395223549, progress insts committed: 11634042, IPC: 01.16224
16938484239099: Event_282: system.switch_cpus0 progress event, total committed:396284906, progress insts committed: 11907772, IPC: 01.18959
16941817572432: Event_282: system.switch_cpus0 progress event, total committed:407546526, progress insts committed: 11261620, IPC: 01.12504
16941817572432: Event_283: system.switch_cpus1 progress event, total committed:406561574, progress insts committed: 11338025, IPC: 01.13267
16941817572432: Event_284: system.switch_cpus2 progress event, total committed:408363797, progress insts committed: 11766308, IPC: 01.17545
16941817572432: Event_285: system.switch_cpus3 progress event, total committed:407633317, progress insts committed: 11341189, IPC: 01.13298
16945150905765: Event_285: system.switch_cpus3 progress event, total committed:418997873, progress insts committed: 11364556, IPC: 01.13532
16945150905765: Event_284: system.switch_cpus2 progress event, total committed:420200065, progress insts committed: 11836268, IPC: 01.18244
16945150905765: Event_283: system.switch_cpus1 progress event, total committed:418194384, progress insts committed: 11632810, IPC: 01.16212
16945150905765: Event_282: system.switch_cpus0 progress event, total committed:418838884, progress insts committed: 11292358, IPC: 01.12811
Exiting @ tick 16948192121055 because a thread reached the max instruction count
