Command line:
./runscript_pride.sh mcf RFM5.BR1.4C 4 2017 --rh_defense --rh_mitigation=RFM --rh_rfm_per_trefi=5 --rh_rfm_blast_radius=1 --rh_rfm_maxacts_per_trefi=79
Global frequency set at 1000000000000 ticks per second
RFM details - rfm_act_threshold: 15, blast_radius: 1, delay_per_rfm: 175000 ps. sample_rate: 0.062500
RH Defense config: RFM, Bus Delay: 0, rfms_per_trefi: 5, rfm_act_threshold: 15, blast_radius: 1,rfm_delay_per_act: 45000 ps.
DRAM config: RowsPerBank: 65536, BanksPerRank: 32, RanksPerChannel: 1
warn: Sockets disabled, not accepting gdb connections
warn: CoherentXBar system.cpu0.mmucache.mmubus has no snooping ports attached!
warn: CoherentXBar system.cpu1.mmucache.mmubus has no snooping ports attached!
warn: CoherentXBar system.cpu2.mmucache.mmubus has no snooping ports attached!
warn: CoherentXBar system.cpu3.mmucache.mmubus has no snooping ports attached!
warn: Checkpoints for file descriptors currently do not work.
warn: Checkpoints for file descriptors currently do not work.
warn: Checkpoints for file descriptors currently do not work.
warn: Checkpoints for file descriptors currently do not work.
gem5 Simulator System.  http://gem5.org
gem5 is copyrighted software; use the --copyright option for details.

gem5 version 20.1.0.5
gem5 compiled Jul 12 2024 12:42:38
gem5 started Jul 17 2024 16:17:02
gem5 executing on a07dda8b130c, pid 90985
command line: /home/user/PrIDE/performance/gem5/build/X86/gem5.opt --outdir=/home/user/PrIDE/performance/gem5/stats/pride_multiprogram_16GBmem_250Mn.SPEC2017.C4/RFM5.BR1.4C/mcf /home/user/PrIDE/performance/gem5/configs/example/se_rq_spec_config_multicore.py --redirects /lib64=/home/utils/gcc-6.2.0/lib64 --benchmark=mcf --benchmark_stdout=/home/user/PrIDE/performance/gem5/stats/pride_multiprogram_16GBmem_250Mn.SPEC2017.C4/RFM5.BR1.4C/mcf/mcf.out --benchmark_stderr=/home/user/PrIDE/performance/gem5/stats/pride_multiprogram_16GBmem_250Mn.SPEC2017.C4/RFM5.BR1.4C/mcf/mcf.err --spec-version=2017 --rh_defense --rh_mitigation=RFM --rh_rfm_per_trefi=5 --rh_rfm_blast_radius=1 --rh_rfm_maxacts_per_trefi=79 --num-cpus=4 --mem-size=16GB --mem-type=DDR5_2400_32x4 --mem-ranks=1 --checkpoint-dir=/home/user/PrIDE/performance/gem5/cpts/multiprogram_16GBmem_25Bn.SPEC2017.C4/mcf-1-ref-x86 --checkpoint-restore=25000000000 --at-instruction --cpu-type DerivO3CPU --caches --l2cache --l1d_size=32kB --l1i_size=32kB --l2_size=256kB --l1d_assoc=8 --l1i_assoc=8 --l2_assoc=16 --maxinsts=250000000 --prog-interval=300Hz

info: Standard input is not a terminal, disabling listeners.
Benchmark- 0   mcf
Selected benchmark
--> mcf
CMD: ['/opt/spec2017/benchspec/CPU/505.mcf_r/run/run_base_refrate_gem5_se-m64.0000/mcf_r_base.gem5_se-m64', '/opt/spec2017/benchspec/CPU/505.mcf_r/run/run_base_refrate_gem5_se-m64.0000/inp.in']
CWD: /opt/spec2017/benchspec/CPU/505.mcf_r/run/run_base_refrate_gem5_se-m64.0000/
Process stdout file: /home/user/PrIDE/performance/gem5/stats/pride_multiprogram_16GBmem_250Mn.SPEC2017.C4/RFM5.BR1.4C/mcf/mcf.out_0
Process stderr file: /home/user/PrIDE/performance/gem5/stats/pride_multiprogram_16GBmem_250Mn.SPEC2017.C4/RFM5.BR1.4C/mcf/mcf.err_0
Benchmark- 1   mcf
Selected benchmark
--> mcf
CMD: ['/opt/spec2017/benchspec/CPU/505.mcf_r/run/run_base_refrate_gem5_se-m64.0000/mcf_r_base.gem5_se-m64', '/opt/spec2017/benchspec/CPU/505.mcf_r/run/run_base_refrate_gem5_se-m64.0000/inp.in']
CWD: /opt/spec2017/benchspec/CPU/505.mcf_r/run/run_base_refrate_gem5_se-m64.0000/
Process stdout file: /home/user/PrIDE/performance/gem5/stats/pride_multiprogram_16GBmem_250Mn.SPEC2017.C4/RFM5.BR1.4C/mcf/mcf.out_1
Process stderr file: /home/user/PrIDE/performance/gem5/stats/pride_multiprogram_16GBmem_250Mn.SPEC2017.C4/RFM5.BR1.4C/mcf/mcf.err_1
Benchmark- 2   mcf
Selected benchmark
--> mcf
CMD: ['/opt/spec2017/benchspec/CPU/505.mcf_r/run/run_base_refrate_gem5_se-m64.0000/mcf_r_base.gem5_se-m64', '/opt/spec2017/benchspec/CPU/505.mcf_r/run/run_base_refrate_gem5_se-m64.0000/inp.in']
CWD: /opt/spec2017/benchspec/CPU/505.mcf_r/run/run_base_refrate_gem5_se-m64.0000/
Process stdout file: /home/user/PrIDE/performance/gem5/stats/pride_multiprogram_16GBmem_250Mn.SPEC2017.C4/RFM5.BR1.4C/mcf/mcf.out_2
Process stderr file: /home/user/PrIDE/performance/gem5/stats/pride_multiprogram_16GBmem_250Mn.SPEC2017.C4/RFM5.BR1.4C/mcf/mcf.err_2
Benchmark- 3   mcf
Selected benchmark
--> mcf
CMD: ['/opt/spec2017/benchspec/CPU/505.mcf_r/run/run_base_refrate_gem5_se-m64.0000/mcf_r_base.gem5_se-m64', '/opt/spec2017/benchspec/CPU/505.mcf_r/run/run_base_refrate_gem5_se-m64.0000/inp.in']
CWD: /opt/spec2017/benchspec/CPU/505.mcf_r/run/run_base_refrate_gem5_se-m64.0000/
Process stdout file: /home/user/PrIDE/performance/gem5/stats/pride_multiprogram_16GBmem_250Mn.SPEC2017.C4/RFM5.BR1.4C/mcf/mcf.out_3
Process stderr file: /home/user/PrIDE/performance/gem5/stats/pride_multiprogram_16GBmem_250Mn.SPEC2017.C4/RFM5.BR1.4C/mcf/mcf.err_3
Workload-0: 
['/opt/spec2017/benchspec/CPU/505.mcf_r/run/run_base_refrate_gem5_se-m64.0000/mcf_r_base.gem5_se-m64', '/opt/spec2017/benchspec/CPU/505.mcf_r/run/run_base_refrate_gem5_se-m64.0000/inp.in']
Workload-1: 
['/opt/spec2017/benchspec/CPU/505.mcf_r/run/run_base_refrate_gem5_se-m64.0000/mcf_r_base.gem5_se-m64', '/opt/spec2017/benchspec/CPU/505.mcf_r/run/run_base_refrate_gem5_se-m64.0000/inp.in']
Workload-2: 
['/opt/spec2017/benchspec/CPU/505.mcf_r/run/run_base_refrate_gem5_se-m64.0000/mcf_r_base.gem5_se-m64', '/opt/spec2017/benchspec/CPU/505.mcf_r/run/run_base_refrate_gem5_se-m64.0000/inp.in']
Workload-3: 
['/opt/spec2017/benchspec/CPU/505.mcf_r/run/run_base_refrate_gem5_se-m64.0000/mcf_r_base.gem5_se-m64', '/opt/spec2017/benchspec/CPU/505.mcf_r/run/run_base_refrate_gem5_se-m64.0000/inp.in']
defense_enable:  True  detector:  MG  mitigation:  RFM  threshold:  800
mg_entries:  1700
rfm_maxacts_per_trefi:  79 rfm_per_trefi:  5 rfm_blast_radius:  1
Switch at curTick count:10000
warn: membus.master is deprecated. `master` is now called `mem_side_ports`
warn: No dot file generated. Please install pydot to generate the dot file and pdf.
info: Entering event queue @ 16815150868149.  Starting simulation...
warn: PowerState: Already in the requested power state, request ignored
Switched CPUS @ tick 16815150878149
switching cpus
**** REAL SIMULATION ****
info: Entering event queue @ 16815150878149.  Starting simulation...
16818484201482: Event_285: system.switch_cpus3 progress event, total committed:8993678, progress insts committed: 8993678, IPC: 0.898468
16818484201482: Event_284: system.switch_cpus2 progress event, total committed:9021422, progress insts committed: 9021422, IPC: 00.90124
16818484201482: Event_283: system.switch_cpus1 progress event, total committed:8993499, progress insts committed: 8993499, IPC: 0.898451
16818484201482: Event_282: system.switch_cpus0 progress event, total committed:9008711, progress insts committed: 9008711, IPC: 00.89997
16821817534815: Event_282: system.switch_cpus0 progress event, total committed:18856725, progress insts committed: 9848014, IPC: 0.983817
16821817534815: Event_283: system.switch_cpus1 progress event, total committed:18851313, progress insts committed: 9857814, IPC: 0.984796
16821817534815: Event_284: system.switch_cpus2 progress event, total committed:18862141, progress insts committed: 9840719, IPC: 0.983088
16821817534815: Event_285: system.switch_cpus3 progress event, total committed:18850730, progress insts committed: 9857052, IPC: 0.984719
16825150868148: Event_285: system.switch_cpus3 progress event, total committed:29070998, progress insts committed: 10220268, IPC: 0001.021
16825150868148: Event_284: system.switch_cpus2 progress event, total committed:29098147, progress insts committed: 10236006, IPC: 01.02258
16825150868148: Event_283: system.switch_cpus1 progress event, total committed:29071047, progress insts committed: 10219734, IPC: 01.02095
16825150868148: Event_282: system.switch_cpus0 progress event, total committed:29080502, progress insts committed: 10223777, IPC: 01.02136
16828484201481: Event_282: system.switch_cpus0 progress event, total committed:39362394, progress insts committed: 10281892, IPC: 01.02716
16828484201481: Event_283: system.switch_cpus1 progress event, total committed:39348116, progress insts committed: 10277069, IPC: 01.02668
16828484201481: Event_284: system.switch_cpus2 progress event, total committed:39418802, progress insts committed: 10320655, IPC: 01.03103
16828484201481: Event_285: system.switch_cpus3 progress event, total committed:39349289, progress insts committed: 10278291, IPC: 001.0268
16831817534814: Event_285: system.switch_cpus3 progress event, total committed:49592787, progress insts committed: 10243498, IPC: 01.02333
16831817534814: Event_284: system.switch_cpus2 progress event, total committed:50589100, progress insts committed: 11170298, IPC: 01.11591
16831817534814: Event_283: system.switch_cpus1 progress event, total committed:49587675, progress insts committed: 10239559, IPC: 01.02293
16831817534814: Event_282: system.switch_cpus0 progress event, total committed:49611661, progress insts committed: 10249267, IPC: 001.0239
16835150868147: Event_282: system.switch_cpus0 progress event, total committed:59873673, progress insts committed: 10262012, IPC: 01.02517
16835150868147: Event_283: system.switch_cpus1 progress event, total committed:59760592, progress insts committed: 10172917, IPC: 01.01627
16835150868147: Event_284: system.switch_cpus2 progress event, total committed:61405767, progress insts committed: 10816667, IPC: 01.08059
16835150868147: Event_285: system.switch_cpus3 progress event, total committed:59771290, progress insts committed: 10178503, IPC: 01.01683
16838484201480: Event_285: system.switch_cpus3 progress event, total committed:70024694, progress insts committed: 10253404, IPC: 01.02432
16838484201480: Event_284: system.switch_cpus2 progress event, total committed:71672365, progress insts committed: 10266598, IPC: 01.02563
16838484201480: Event_283: system.switch_cpus1 progress event, total committed:70010943, progress insts committed: 10250351, IPC: 01.02401
16838484201480: Event_282: system.switch_cpus0 progress event, total committed:71439045, progress insts committed: 11565372, IPC: 01.15538
16841817534813: Event_282: system.switch_cpus0 progress event, total committed:81925281, progress insts committed: 10486236, IPC: 01.04757
16841817534813: Event_283: system.switch_cpus1 progress event, total committed:80284149, progress insts committed: 10273206, IPC: 01.02629
16841817534813: Event_284: system.switch_cpus2 progress event, total committed:81965299, progress insts committed: 10292934, IPC: 01.02826
16841817534813: Event_285: system.switch_cpus3 progress event, total committed:80323772, progress insts committed: 10299078, IPC: 01.02888
16845150868146: Event_285: system.switch_cpus3 progress event, total committed:91299271, progress insts committed: 10975499, IPC: 01.09645
16845150868146: Event_284: system.switch_cpus2 progress event, total committed:92195925, progress insts committed: 10230626, IPC: 01.02204
16845150868146: Event_283: system.switch_cpus1 progress event, total committed:90496997, progress insts committed: 10212848, IPC: 01.02026
16845150868146: Event_282: system.switch_cpus0 progress event, total committed:92181174, progress insts committed: 10255893, IPC: 01.02456
16848484201479: Event_282: system.switch_cpus0 progress event, total committed:102525831, progress insts committed: 10344657, IPC: 01.03343
16848484201479: Event_283: system.switch_cpus1 progress event, total committed:100849297, progress insts committed: 10352300, IPC: 01.03419
16848484201479: Event_284: system.switch_cpus2 progress event, total committed:102544155, progress insts committed: 10348230, IPC: 01.03379
16848484201479: Event_285: system.switch_cpus3 progress event, total committed:102472534, progress insts committed: 11173263, IPC: 01.11621
16851817534812: Event_285: system.switch_cpus3 progress event, total committed:112689280, progress insts committed: 10216746, IPC: 01.02065
16851817534812: Event_284: system.switch_cpus2 progress event, total committed:112727591, progress insts committed: 10183436, IPC: 01.01733
16851817534812: Event_283: system.switch_cpus1 progress event, total committed:111121781, progress insts committed: 10272484, IPC: 01.02622
16851817534812: Event_282: system.switch_cpus0 progress event, total committed:112708238, progress insts committed: 10182407, IPC: 01.01722
16855150868145: Event_282: system.switch_cpus0 progress event, total committed:123067595, progress insts committed: 10359357, IPC: 001.0349
16855150868145: Event_283: system.switch_cpus1 progress event, total committed:122713731, progress insts committed: 11591950, IPC: 01.15804
16855150868145: Event_284: system.switch_cpus2 progress event, total committed:123089023, progress insts committed: 10361432, IPC: 01.03511
16855150868145: Event_285: system.switch_cpus3 progress event, total committed:123062190, progress insts committed: 10372910, IPC: 01.03625
16858484201478: Event_285: system.switch_cpus3 progress event, total committed:129957499, progress insts committed: 6895309, IPC: 0.688841
16858484201478: Event_284: system.switch_cpus2 progress event, total committed:129969963, progress insts committed: 6880940, IPC: 0.687406
16858484201478: Event_283: system.switch_cpus1 progress event, total committed:129936970, progress insts committed: 7223239, IPC: 0.721602
16858484201478: Event_282: system.switch_cpus0 progress event, total committed:129959000, progress insts committed: 6891405, IPC: 0.688451
16861817534811: Event_282: system.switch_cpus0 progress event, total committed:132241902, progress insts committed: 2282902, IPC: 0.228062
16861817534811: Event_283: system.switch_cpus1 progress event, total committed:132154160, progress insts committed: 2217190, IPC: 0.221497
16861817534811: Event_284: system.switch_cpus2 progress event, total committed:132359653, progress insts committed: 2389690, IPC: 00.23873
16861817534811: Event_285: system.switch_cpus3 progress event, total committed:132230182, progress insts committed: 2272683, IPC: 0.227041
16865150868144: Event_285: system.switch_cpus3 progress event, total committed:143141082, progress insts committed: 10910900, IPC: 00001.09
16865150868144: Event_284: system.switch_cpus2 progress event, total committed:144235566, progress insts committed: 11875913, IPC: 001.1864
16865150868144: Event_283: system.switch_cpus1 progress event, total committed:142659558, progress insts committed: 10505398, IPC: 01.04949
16865150868144: Event_282: system.switch_cpus0 progress event, total committed:143249508, progress insts committed: 11007606, IPC: 01.09966
16868484201477: Event_282: system.switch_cpus0 progress event, total committed:154176893, progress insts committed: 10927385, IPC: 01.09165
16868484201477: Event_283: system.switch_cpus1 progress event, total committed:154060252, progress insts committed: 11400694, IPC: 01.13893
16868484201477: Event_284: system.switch_cpus2 progress event, total committed:156018117, progress insts committed: 11782551, IPC: 01.17708
16868484201477: Event_285: system.switch_cpus3 progress event, total committed:154135249, progress insts committed: 10994167, IPC: 01.09832
16871817534810: Event_285: system.switch_cpus3 progress event, total committed:165789327, progress insts committed: 11654078, IPC: 01.16424
16871817534810: Event_284: system.switch_cpus2 progress event, total committed:167050581, progress insts committed: 11032464, IPC: 01.10214
16871817534810: Event_283: system.switch_cpus1 progress event, total committed:165152475, progress insts committed: 11092223, IPC: 01.10811
16871817534810: Event_282: system.switch_cpus0 progress event, total committed:166044562, progress insts committed: 11867669, IPC: 01.18558
16875150868143: Event_282: system.switch_cpus0 progress event, total committed:177933642, progress insts committed: 11889080, IPC: 01.18772
16875150868143: Event_283: system.switch_cpus1 progress event, total committed:176037678, progress insts committed: 10885203, IPC: 01.08743
16875150868143: Event_284: system.switch_cpus2 progress event, total committed:178039163, progress insts committed: 10988582, IPC: 01.09776
16875150868143: Event_285: system.switch_cpus3 progress event, total committed:177106986, progress insts committed: 11317659, IPC: 01.13063
16878484201476: Event_285: system.switch_cpus3 progress event, total committed:188763883, progress insts committed: 11656897, IPC: 01.16452
16878484201476: Event_284: system.switch_cpus2 progress event, total committed:189784484, progress insts committed: 11745321, IPC: 01.17336
16878484201476: Event_283: system.switch_cpus1 progress event, total committed:187826919, progress insts committed: 11789241, IPC: 01.17775
16878484201476: Event_282: system.switch_cpus0 progress event, total committed:189163819, progress insts committed: 11230177, IPC: 01.12189
16881817534809: Event_282: system.switch_cpus0 progress event, total committed:199998545, progress insts committed: 10834726, IPC: 01.08239
16881817534809: Event_283: system.switch_cpus1 progress event, total committed:199411224, progress insts committed: 11584305, IPC: 01.15727
16881817534809: Event_284: system.switch_cpus2 progress event, total committed:200691341, progress insts committed: 10906857, IPC: 001.0896
16881817534809: Event_285: system.switch_cpus3 progress event, total committed:199859593, progress insts committed: 11095710, IPC: 01.10846
16885150868142: Event_285: system.switch_cpus3 progress event, total committed:211709789, progress insts committed: 11850196, IPC: 01.18383
16885150868142: Event_284: system.switch_cpus2 progress event, total committed:212139781, progress insts committed: 11448440, IPC: 001.1437
16885150868142: Event_283: system.switch_cpus1 progress event, total committed:211210953, progress insts committed: 11799729, IPC: 01.17879
16885150868142: Event_282: system.switch_cpus0 progress event, total committed:211719513, progress insts committed: 11720968, IPC: 01.17092
16888484201475: Event_282: system.switch_cpus0 progress event, total committed:223177503, progress insts committed: 11457990, IPC: 01.14465
16888484201475: Event_283: system.switch_cpus1 progress event, total committed:222346178, progress insts committed: 11135225, IPC: 01.11241
16888484201475: Event_284: system.switch_cpus2 progress event, total committed:223713609, progress insts committed: 11573828, IPC: 01.15623
16888484201475: Event_285: system.switch_cpus3 progress event, total committed:223091854, progress insts committed: 11382065, IPC: 01.13707
16891817534808: Event_285: system.switch_cpus3 progress event, total committed:233991297, progress insts committed: 10899443, IPC: 01.08885
16891817534808: Event_284: system.switch_cpus2 progress event, total committed:235514986, progress insts committed: 11801377, IPC: 01.17896
16891817534808: Event_283: system.switch_cpus1 progress event, total committed:233550896, progress insts committed: 11204718, IPC: 01.11935
16891817534808: Event_282: system.switch_cpus0 progress event, total committed:234177790, progress insts committed: 11000287, IPC: 01.09893
16895150868141: Event_282: system.switch_cpus0 progress event, total committed:245568501, progress insts committed: 11390711, IPC: 01.13793
16895150868141: Event_283: system.switch_cpus1 progress event, total committed:245079825, progress insts committed: 11528929, IPC: 01.15174
16895150868141: Event_284: system.switch_cpus2 progress event, total committed:247007355, progress insts committed: 11492369, IPC: 01.14809
16895150868141: Event_285: system.switch_cpus3 progress event, total committed:245427114, progress insts committed: 11435817, IPC: 01.14244
16898484201474: Event_285: system.switch_cpus3 progress event, total committed:257339719, progress insts committed: 11912605, IPC: 01.19007
16898484201474: Event_284: system.switch_cpus2 progress event, total committed:258253287, progress insts committed: 11245932, IPC: 01.12347
16898484201474: Event_283: system.switch_cpus1 progress event, total committed:256361239, progress insts committed: 11281414, IPC: 01.12701
16898484201474: Event_282: system.switch_cpus0 progress event, total committed:257424969, progress insts committed: 11856468, IPC: 01.18446
16901817534807: Event_282: system.switch_cpus0 progress event, total committed:269297939, progress insts committed: 11872970, IPC: 01.18611
16901817534807: Event_283: system.switch_cpus1 progress event, total committed:267749707, progress insts committed: 11388468, IPC: 01.13771
16901817534807: Event_284: system.switch_cpus2 progress event, total committed:269513697, progress insts committed: 11260410, IPC: 01.12491
16901817534807: Event_285: system.switch_cpus3 progress event, total committed:269246812, progress insts committed: 11907093, IPC: 01.18952
16905150868140: Event_285: system.switch_cpus3 progress event, total committed:280304458, progress insts committed: 11057646, IPC: 01.10466
16905150868140: Event_284: system.switch_cpus2 progress event, total committed:281229423, progress insts committed: 11715726, IPC: 001.1704
16905150868140: Event_283: system.switch_cpus1 progress event, total committed:279261193, progress insts committed: 11511486, IPC: 00001.15
16905150868140: Event_282: system.switch_cpus0 progress event, total committed:280588513, progress insts committed: 11290574, IPC: 01.12793
16908484201473: Event_282: system.switch_cpus0 progress event, total committed:291818101, progress insts committed: 11229588, IPC: 01.12184
16908484201473: Event_283: system.switch_cpus1 progress event, total committed:290942221, progress insts committed: 11681028, IPC: 01.16693
16908484201473: Event_284: system.switch_cpus2 progress event, total committed:293042427, progress insts committed: 11813004, IPC: 01.18012
16908484201473: Event_285: system.switch_cpus3 progress event, total committed:291692121, progress insts committed: 11387663, IPC: 01.13763
16911817534806: Event_285: system.switch_cpus3 progress event, total committed:303065478, progress insts committed: 11373357, IPC: 001.1362
16911817534806: Event_284: system.switch_cpus2 progress event, total committed:304496290, progress insts committed: 11453863, IPC: 01.14424
16911817534806: Event_283: system.switch_cpus1 progress event, total committed:302298812, progress insts committed: 11356591, IPC: 01.13452
16911817534806: Event_282: system.switch_cpus0 progress event, total committed:303071698, progress insts committed: 11253597, IPC: 01.12423
16915150868139: Event_282: system.switch_cpus0 progress event, total committed:314883749, progress insts committed: 11812051, IPC: 01.18002
16915150868139: Event_283: system.switch_cpus1 progress event, total committed:313585862, progress insts committed: 11287050, IPC: 01.12758
16915150868139: Event_284: system.switch_cpus2 progress event, total committed:315703185, progress insts committed: 11206895, IPC: 01.11957
16915150868139: Event_285: system.switch_cpus3 progress event, total committed:314882738, progress insts committed: 11817260, IPC: 01.18054
16918484201472: Event_285: system.switch_cpus3 progress event, total committed:326431439, progress insts committed: 11548701, IPC: 01.15372
16918484201472: Event_284: system.switch_cpus2 progress event, total committed:327025034, progress insts committed: 11321849, IPC: 01.13105
16918484201472: Event_283: system.switch_cpus1 progress event, total committed:324890724, progress insts committed: 11304862, IPC: 01.12936
16918484201472: Event_282: system.switch_cpus0 progress event, total committed:326387860, progress insts committed: 11504111, IPC: 01.14926
16921817534805: Event_282: system.switch_cpus0 progress event, total committed:337718156, progress insts committed: 11330296, IPC: 001.1319
16921817534805: Event_283: system.switch_cpus1 progress event, total committed:336708962, progress insts committed: 11818238, IPC: 01.18064
16921817534805: Event_284: system.switch_cpus2 progress event, total committed:338686778, progress insts committed: 11661744, IPC: 01.16501
16921817534805: Event_285: system.switch_cpus3 progress event, total committed:337599672, progress insts committed: 11168233, IPC: 01.11571
16925150868138: Event_285: system.switch_cpus3 progress event, total committed:349079804, progress insts committed: 11480132, IPC: 01.14687
16925150868138: Event_284: system.switch_cpus2 progress event, total committed:350566452, progress insts committed: 11879674, IPC: 01.18678
16925150868138: Event_283: system.switch_cpus1 progress event, total committed:348432554, progress insts committed: 11723592, IPC: 01.17119
16925150868138: Event_282: system.switch_cpus0 progress event, total committed:349202287, progress insts committed: 11484131, IPC: 01.14726
16928484201471: Event_282: system.switch_cpus0 progress event, total committed:360711642, progress insts committed: 11509355, IPC: 01.14978
16928484201471: Event_283: system.switch_cpus1 progress event, total committed:359743135, progress insts committed: 11310581, IPC: 01.12993
16928484201471: Event_284: system.switch_cpus2 progress event, total committed:361809018, progress insts committed: 11242566, IPC: 01.12313
16928484201471: Event_285: system.switch_cpus3 progress event, total committed:360701657, progress insts committed: 11621853, IPC: 01.16102
16931817534804: Event_285: system.switch_cpus3 progress event, total committed:372125761, progress insts committed: 11424104, IPC: 01.14127
16931817534804: Event_284: system.switch_cpus2 progress event, total committed:372539807, progress insts committed: 10730789, IPC: 01.07201
16931817534804: Event_283: system.switch_cpus1 progress event, total committed:370594862, progress insts committed: 10851727, IPC: 01.08409
16931817534804: Event_282: system.switch_cpus0 progress event, total committed:372116172, progress insts committed: 11404530, IPC: 01.13931
16935150868137: Event_282: system.switch_cpus0 progress event, total committed:383369356, progress insts committed: 11253184, IPC: 01.12419
16935150868137: Event_283: system.switch_cpus1 progress event, total committed:382367961, progress insts committed: 11773099, IPC: 01.17613
16935150868137: Event_284: system.switch_cpus2 progress event, total committed:384334209, progress insts committed: 11794402, IPC: 01.17826
16935150868137: Event_285: system.switch_cpus3 progress event, total committed:383378360, progress insts committed: 11252599, IPC: 01.12413
16938484201470: Event_285: system.switch_cpus3 progress event, total committed:394676990, progress insts committed: 11298630, IPC: 01.12873
16938484201470: Event_284: system.switch_cpus2 progress event, total committed:396119720, progress insts committed: 11785511, IPC: 01.17737
16938484201470: Event_283: system.switch_cpus1 progress event, total committed:394303794, progress insts committed: 11935833, IPC: 01.19239
16938484201470: Event_282: system.switch_cpus0 progress event, total committed:394639869, progress insts committed: 11270513, IPC: 01.12592
16941817534803: Event_282: system.switch_cpus0 progress event, total committed:406316767, progress insts committed: 11676898, IPC: 01.16652
16941817534803: Event_283: system.switch_cpus1 progress event, total committed:405727824, progress insts committed: 11424030, IPC: 01.14126
16941817534803: Event_284: system.switch_cpus2 progress event, total committed:407577564, progress insts committed: 11457844, IPC: 01.14464
16941817534803: Event_285: system.switch_cpus3 progress event, total committed:406323134, progress insts committed: 11646144, IPC: 01.16345
16945150868136: Event_285: system.switch_cpus3 progress event, total committed:418147965, progress insts committed: 11824831, IPC: 001.1813
16945150868136: Event_284: system.switch_cpus2 progress event, total committed:419038365, progress insts committed: 11460801, IPC: 01.14493
16945150868136: Event_283: system.switch_cpus1 progress event, total committed:417181366, progress insts committed: 11453542, IPC: 01.14421
16945150868136: Event_282: system.switch_cpus0 progress event, total committed:418138986, progress insts committed: 11822219, IPC: 01.18104
Exiting @ tick 16948480463424 because a thread reached the max instruction count
