
---------- Begin Simulation Statistics ----------
final_tick                               13761384282225                       # Number of ticks from beginning of simulation (restored from checkpoints and never reset)
host_inst_rate                                 119730                       # Simulator instruction rate (inst/s)
host_mem_usage                               17209472                       # Number of bytes of host memory used
host_op_rate                                   206366                       # Simulator op (including micro ops) rate (op/s)
host_seconds                                  3454.13                       # Real time elapsed on the host
host_tick_rate                               12255390                       # Simulator tick rate (ticks/s)
sim_freq                                 1000000000000                       # Frequency of simulated ticks
sim_insts                                   413563339                       # Number of instructions simulated
sim_ops                                     712813097                       # Number of ops (including micro ops) simulated
sim_seconds                                  0.042332                       # Number of seconds simulated
sim_ticks                                 42331686273                       # Number of ticks simulated
system.cpu0.committedInsts                         19                       # Number of instructions committed
system.cpu0.committedOps                           20                       # Number of ops (including micro ops) committed
system.cpu0.idle_fraction                           0                       # Percentage of idle cycles
system.cpu0.l2bus.snoop_filter.hit_multi_requests            0                       # Number of requests hitting in the snoop filter with multiple (>1) holders of the requested data.
system.cpu0.l2bus.snoop_filter.hit_multi_snoops            0                       # Number of snoops hitting in the snoop filter with multiple (>1) holders of the requested data.
system.cpu0.l2bus.snoop_filter.hit_single_requests      2746364                       # Number of requests hitting in the snoop filter with a single holder of the requested data.
system.cpu0.l2bus.snoop_filter.hit_single_snoops          231                       # Number of snoops hitting in the snoop filter with a single holder of the requested data.
system.cpu0.l2bus.snoop_filter.tot_requests      5493305                       # Total number of requests made to the snoop filter.
system.cpu0.l2bus.snoop_filter.tot_snoops          231                       # Total number of snoops made to the snoop filter.
system.cpu0.mmucache.mmubus.snoop_filter.hit_multi_requests            0                       # Number of requests hitting in the snoop filter with multiple (>1) holders of the requested data.
system.cpu0.mmucache.mmubus.snoop_filter.hit_multi_snoops            0                       # Number of snoops hitting in the snoop filter with multiple (>1) holders of the requested data.
system.cpu0.mmucache.mmubus.snoop_filter.hit_single_requests            0                       # Number of requests hitting in the snoop filter with a single holder of the requested data.
system.cpu0.mmucache.mmubus.snoop_filter.hit_single_snoops            0                       # Number of snoops hitting in the snoop filter with a single holder of the requested data.
system.cpu0.mmucache.mmubus.snoop_filter.tot_requests            0                       # Total number of requests made to the snoop filter.
system.cpu0.mmucache.mmubus.snoop_filter.tot_snoops            0                       # Total number of snoops made to the snoop filter.
system.cpu0.not_idle_fraction                       1                       # Percentage of non-idle cycles
system.cpu0.numCycles                              30                       # number of cpu cycles simulated
system.cpu0.numWorkItemsCompleted                   0                       # number of work items this cpu completed
system.cpu0.numWorkItemsStarted                     0                       # number of work items this cpu started
system.cpu0.num_busy_cycles                        30                       # Number of busy cycles
system.cpu0.num_conditional_control_insts            0                       # number of instructions that are conditional controls
system.cpu0.num_fp_alu_accesses                    20                       # Number of float alu accesses
system.cpu0.num_fp_insts                           20                       # number of float instructions
system.cpu0.num_fp_register_reads                  36                       # number of times the floating registers were read
system.cpu0.num_fp_register_writes                 19                       # number of times the floating registers were written
system.cpu0.num_func_calls                          0                       # number of times a function call or return occured
system.cpu0.num_idle_cycles                         0                       # Number of idle cycles
system.cpu0.num_int_alu_accesses                    8                       # Number of integer alu accesses
system.cpu0.num_int_insts                           8                       # number of integer instructions
system.cpu0.num_int_register_reads                 24                       # number of times the integer registers were read
system.cpu0.num_int_register_writes                 0                       # number of times the integer registers were written
system.cpu0.num_load_insts                          7                       # Number of load instructions
system.cpu0.num_mem_refs                            8                       # number of memory refs
system.cpu0.num_store_insts                         1                       # Number of store instructions
system.cpu0.num_vec_alu_accesses                    0                       # Number of vector alu accesses
system.cpu0.num_vec_insts                           0                       # number of vector instructions
system.cpu0.num_vec_register_reads                  0                       # number of times the vector registers were read
system.cpu0.num_vec_register_writes                 0                       # number of times the vector registers were written
system.cpu0.op_class::No_OpClass                    0      0.00%      0.00% # Class of executed instruction
system.cpu0.op_class::IntAlu                        1      5.00%      5.00% # Class of executed instruction
system.cpu0.op_class::IntMult                       0      0.00%      5.00% # Class of executed instruction
system.cpu0.op_class::IntDiv                        0      0.00%      5.00% # Class of executed instruction
system.cpu0.op_class::FloatAdd                      0      0.00%      5.00% # Class of executed instruction
system.cpu0.op_class::FloatCmp                      0      0.00%      5.00% # Class of executed instruction
system.cpu0.op_class::FloatCvt                      0      0.00%      5.00% # Class of executed instruction
system.cpu0.op_class::FloatMult                     0      0.00%      5.00% # Class of executed instruction
system.cpu0.op_class::FloatMultAcc                  0      0.00%      5.00% # Class of executed instruction
system.cpu0.op_class::FloatDiv                      0      0.00%      5.00% # Class of executed instruction
system.cpu0.op_class::FloatMisc                     0      0.00%      5.00% # Class of executed instruction
system.cpu0.op_class::FloatSqrt                     0      0.00%      5.00% # Class of executed instruction
system.cpu0.op_class::SimdAdd                       0      0.00%      5.00% # Class of executed instruction
system.cpu0.op_class::SimdAddAcc                    0      0.00%      5.00% # Class of executed instruction
system.cpu0.op_class::SimdAlu                       0      0.00%      5.00% # Class of executed instruction
system.cpu0.op_class::SimdCmp                       0      0.00%      5.00% # Class of executed instruction
system.cpu0.op_class::SimdCvt                       0      0.00%      5.00% # Class of executed instruction
system.cpu0.op_class::SimdMisc                      0      0.00%      5.00% # Class of executed instruction
system.cpu0.op_class::SimdMult                      0      0.00%      5.00% # Class of executed instruction
system.cpu0.op_class::SimdMultAcc                   0      0.00%      5.00% # Class of executed instruction
system.cpu0.op_class::SimdShift                     0      0.00%      5.00% # Class of executed instruction
system.cpu0.op_class::SimdShiftAcc                  0      0.00%      5.00% # Class of executed instruction
system.cpu0.op_class::SimdDiv                       0      0.00%      5.00% # Class of executed instruction
system.cpu0.op_class::SimdSqrt                      0      0.00%      5.00% # Class of executed instruction
system.cpu0.op_class::SimdFloatAdd                  5     25.00%     30.00% # Class of executed instruction
system.cpu0.op_class::SimdFloatAlu                  0      0.00%     30.00% # Class of executed instruction
system.cpu0.op_class::SimdFloatCmp                  0      0.00%     30.00% # Class of executed instruction
system.cpu0.op_class::SimdFloatCvt                  0      0.00%     30.00% # Class of executed instruction
system.cpu0.op_class::SimdFloatDiv                  0      0.00%     30.00% # Class of executed instruction
system.cpu0.op_class::SimdFloatMisc                 0      0.00%     30.00% # Class of executed instruction
system.cpu0.op_class::SimdFloatMult                 6     30.00%     60.00% # Class of executed instruction
system.cpu0.op_class::SimdFloatMultAcc              0      0.00%     60.00% # Class of executed instruction
system.cpu0.op_class::SimdFloatSqrt                 0      0.00%     60.00% # Class of executed instruction
system.cpu0.op_class::SimdReduceAdd                 0      0.00%     60.00% # Class of executed instruction
system.cpu0.op_class::SimdReduceAlu                 0      0.00%     60.00% # Class of executed instruction
system.cpu0.op_class::SimdReduceCmp                 0      0.00%     60.00% # Class of executed instruction
system.cpu0.op_class::SimdFloatReduceAdd            0      0.00%     60.00% # Class of executed instruction
system.cpu0.op_class::SimdFloatReduceCmp            0      0.00%     60.00% # Class of executed instruction
system.cpu0.op_class::SimdAes                       0      0.00%     60.00% # Class of executed instruction
system.cpu0.op_class::SimdAesMix                    0      0.00%     60.00% # Class of executed instruction
system.cpu0.op_class::SimdSha1Hash                  0      0.00%     60.00% # Class of executed instruction
system.cpu0.op_class::SimdSha1Hash2                 0      0.00%     60.00% # Class of executed instruction
system.cpu0.op_class::SimdSha256Hash                0      0.00%     60.00% # Class of executed instruction
system.cpu0.op_class::SimdSha256Hash2               0      0.00%     60.00% # Class of executed instruction
system.cpu0.op_class::SimdShaSigma2                 0      0.00%     60.00% # Class of executed instruction
system.cpu0.op_class::SimdShaSigma3                 0      0.00%     60.00% # Class of executed instruction
system.cpu0.op_class::SimdPredAlu                   0      0.00%     60.00% # Class of executed instruction
system.cpu0.op_class::MemRead                       0      0.00%     60.00% # Class of executed instruction
system.cpu0.op_class::MemWrite                      0      0.00%     60.00% # Class of executed instruction
system.cpu0.op_class::FloatMemRead                  7     35.00%     95.00% # Class of executed instruction
system.cpu0.op_class::FloatMemWrite                 1      5.00%    100.00% # Class of executed instruction
system.cpu0.op_class::IprAccess                     0      0.00%    100.00% # Class of executed instruction
system.cpu0.op_class::InstPrefetch                  0      0.00%    100.00% # Class of executed instruction
system.cpu0.op_class::total                        20                       # Class of executed instruction
system.cpu0.workload.numSyscalls                    0                       # Number of system calls
system.cpu1.Branches                                1                       # Number of branches fetched
system.cpu1.committedInsts                         17                       # Number of instructions committed
system.cpu1.committedOps                           25                       # Number of ops (including micro ops) committed
system.cpu1.idle_fraction                           0                       # Percentage of idle cycles
system.cpu1.l2bus.snoop_filter.hit_multi_requests          114                       # Number of requests hitting in the snoop filter with multiple (>1) holders of the requested data.
system.cpu1.l2bus.snoop_filter.hit_multi_snoops           45                       # Number of snoops hitting in the snoop filter with multiple (>1) holders of the requested data.
system.cpu1.l2bus.snoop_filter.hit_single_requests      1702034                       # Number of requests hitting in the snoop filter with a single holder of the requested data.
system.cpu1.l2bus.snoop_filter.hit_single_snoops          214                       # Number of snoops hitting in the snoop filter with a single holder of the requested data.
system.cpu1.l2bus.snoop_filter.tot_requests      3392296                       # Total number of requests made to the snoop filter.
system.cpu1.l2bus.snoop_filter.tot_snoops          259                       # Total number of snoops made to the snoop filter.
system.cpu1.mmucache.mmubus.snoop_filter.hit_multi_requests            0                       # Number of requests hitting in the snoop filter with multiple (>1) holders of the requested data.
system.cpu1.mmucache.mmubus.snoop_filter.hit_multi_snoops            0                       # Number of snoops hitting in the snoop filter with multiple (>1) holders of the requested data.
system.cpu1.mmucache.mmubus.snoop_filter.hit_single_requests            0                       # Number of requests hitting in the snoop filter with a single holder of the requested data.
system.cpu1.mmucache.mmubus.snoop_filter.hit_single_snoops            0                       # Number of snoops hitting in the snoop filter with a single holder of the requested data.
system.cpu1.mmucache.mmubus.snoop_filter.tot_requests            0                       # Total number of requests made to the snoop filter.
system.cpu1.mmucache.mmubus.snoop_filter.tot_snoops            0                       # Total number of snoops made to the snoop filter.
system.cpu1.not_idle_fraction                       1                       # Percentage of non-idle cycles
system.cpu1.numCycles                              31                       # number of cpu cycles simulated
system.cpu1.numWorkItemsCompleted                   0                       # number of work items this cpu completed
system.cpu1.numWorkItemsStarted                     0                       # number of work items this cpu started
system.cpu1.num_busy_cycles                        31                       # Number of busy cycles
system.cpu1.num_cc_register_reads                  20                       # number of times the CC registers were read
system.cpu1.num_cc_register_writes                 12                       # number of times the CC registers were written
system.cpu1.num_conditional_control_insts            1                       # number of instructions that are conditional controls
system.cpu1.num_fp_alu_accesses                     0                       # Number of float alu accesses
system.cpu1.num_fp_insts                            0                       # number of float instructions
system.cpu1.num_fp_register_reads                   0                       # number of times the floating registers were read
system.cpu1.num_fp_register_writes                  0                       # number of times the floating registers were written
system.cpu1.num_func_calls                          0                       # number of times a function call or return occured
system.cpu1.num_idle_cycles                         0                       # Number of idle cycles
system.cpu1.num_int_alu_accesses                   25                       # Number of integer alu accesses
system.cpu1.num_int_insts                          25                       # number of integer instructions
system.cpu1.num_int_register_reads                 59                       # number of times the integer registers were read
system.cpu1.num_int_register_writes                17                       # number of times the integer registers were written
system.cpu1.num_load_insts                          2                       # Number of load instructions
system.cpu1.num_mem_refs                            9                       # number of memory refs
system.cpu1.num_store_insts                         7                       # Number of store instructions
system.cpu1.num_vec_alu_accesses                    0                       # Number of vector alu accesses
system.cpu1.num_vec_insts                           0                       # number of vector instructions
system.cpu1.num_vec_register_reads                  0                       # number of times the vector registers were read
system.cpu1.num_vec_register_writes                 0                       # number of times the vector registers were written
system.cpu1.op_class::No_OpClass                    0      0.00%      0.00% # Class of executed instruction
system.cpu1.op_class::IntAlu                       16     64.00%     64.00% # Class of executed instruction
system.cpu1.op_class::IntMult                       0      0.00%     64.00% # Class of executed instruction
system.cpu1.op_class::IntDiv                        0      0.00%     64.00% # Class of executed instruction
system.cpu1.op_class::FloatAdd                      0      0.00%     64.00% # Class of executed instruction
system.cpu1.op_class::FloatCmp                      0      0.00%     64.00% # Class of executed instruction
system.cpu1.op_class::FloatCvt                      0      0.00%     64.00% # Class of executed instruction
system.cpu1.op_class::FloatMult                     0      0.00%     64.00% # Class of executed instruction
system.cpu1.op_class::FloatMultAcc                  0      0.00%     64.00% # Class of executed instruction
system.cpu1.op_class::FloatDiv                      0      0.00%     64.00% # Class of executed instruction
system.cpu1.op_class::FloatMisc                     0      0.00%     64.00% # Class of executed instruction
system.cpu1.op_class::FloatSqrt                     0      0.00%     64.00% # Class of executed instruction
system.cpu1.op_class::SimdAdd                       0      0.00%     64.00% # Class of executed instruction
system.cpu1.op_class::SimdAddAcc                    0      0.00%     64.00% # Class of executed instruction
system.cpu1.op_class::SimdAlu                       0      0.00%     64.00% # Class of executed instruction
system.cpu1.op_class::SimdCmp                       0      0.00%     64.00% # Class of executed instruction
system.cpu1.op_class::SimdCvt                       0      0.00%     64.00% # Class of executed instruction
system.cpu1.op_class::SimdMisc                      0      0.00%     64.00% # Class of executed instruction
system.cpu1.op_class::SimdMult                      0      0.00%     64.00% # Class of executed instruction
system.cpu1.op_class::SimdMultAcc                   0      0.00%     64.00% # Class of executed instruction
system.cpu1.op_class::SimdShift                     0      0.00%     64.00% # Class of executed instruction
system.cpu1.op_class::SimdShiftAcc                  0      0.00%     64.00% # Class of executed instruction
system.cpu1.op_class::SimdDiv                       0      0.00%     64.00% # Class of executed instruction
system.cpu1.op_class::SimdSqrt                      0      0.00%     64.00% # Class of executed instruction
system.cpu1.op_class::SimdFloatAdd                  0      0.00%     64.00% # Class of executed instruction
system.cpu1.op_class::SimdFloatAlu                  0      0.00%     64.00% # Class of executed instruction
system.cpu1.op_class::SimdFloatCmp                  0      0.00%     64.00% # Class of executed instruction
system.cpu1.op_class::SimdFloatCvt                  0      0.00%     64.00% # Class of executed instruction
system.cpu1.op_class::SimdFloatDiv                  0      0.00%     64.00% # Class of executed instruction
system.cpu1.op_class::SimdFloatMisc                 0      0.00%     64.00% # Class of executed instruction
system.cpu1.op_class::SimdFloatMult                 0      0.00%     64.00% # Class of executed instruction
system.cpu1.op_class::SimdFloatMultAcc              0      0.00%     64.00% # Class of executed instruction
system.cpu1.op_class::SimdFloatSqrt                 0      0.00%     64.00% # Class of executed instruction
system.cpu1.op_class::SimdReduceAdd                 0      0.00%     64.00% # Class of executed instruction
system.cpu1.op_class::SimdReduceAlu                 0      0.00%     64.00% # Class of executed instruction
system.cpu1.op_class::SimdReduceCmp                 0      0.00%     64.00% # Class of executed instruction
system.cpu1.op_class::SimdFloatReduceAdd            0      0.00%     64.00% # Class of executed instruction
system.cpu1.op_class::SimdFloatReduceCmp            0      0.00%     64.00% # Class of executed instruction
system.cpu1.op_class::SimdAes                       0      0.00%     64.00% # Class of executed instruction
system.cpu1.op_class::SimdAesMix                    0      0.00%     64.00% # Class of executed instruction
system.cpu1.op_class::SimdSha1Hash                  0      0.00%     64.00% # Class of executed instruction
system.cpu1.op_class::SimdSha1Hash2                 0      0.00%     64.00% # Class of executed instruction
system.cpu1.op_class::SimdSha256Hash                0      0.00%     64.00% # Class of executed instruction
system.cpu1.op_class::SimdSha256Hash2               0      0.00%     64.00% # Class of executed instruction
system.cpu1.op_class::SimdShaSigma2                 0      0.00%     64.00% # Class of executed instruction
system.cpu1.op_class::SimdShaSigma3                 0      0.00%     64.00% # Class of executed instruction
system.cpu1.op_class::SimdPredAlu                   0      0.00%     64.00% # Class of executed instruction
system.cpu1.op_class::MemRead                       2      8.00%     72.00% # Class of executed instruction
system.cpu1.op_class::MemWrite                      7     28.00%    100.00% # Class of executed instruction
system.cpu1.op_class::FloatMemRead                  0      0.00%    100.00% # Class of executed instruction
system.cpu1.op_class::FloatMemWrite                 0      0.00%    100.00% # Class of executed instruction
system.cpu1.op_class::IprAccess                     0      0.00%    100.00% # Class of executed instruction
system.cpu1.op_class::InstPrefetch                  0      0.00%    100.00% # Class of executed instruction
system.cpu1.op_class::total                        25                       # Class of executed instruction
system.cpu1.workload.numSyscalls                    0                       # Number of system calls
system.cpu2.committedInsts                         11                       # Number of instructions committed
system.cpu2.committedOps                           24                       # Number of ops (including micro ops) committed
system.cpu2.idle_fraction                           0                       # Percentage of idle cycles
system.cpu2.l2bus.snoop_filter.hit_multi_requests            4                       # Number of requests hitting in the snoop filter with multiple (>1) holders of the requested data.
system.cpu2.l2bus.snoop_filter.hit_multi_snoops            0                       # Number of snoops hitting in the snoop filter with multiple (>1) holders of the requested data.
system.cpu2.l2bus.snoop_filter.hit_single_requests       558457                       # Number of requests hitting in the snoop filter with a single holder of the requested data.
system.cpu2.l2bus.snoop_filter.hit_single_snoops          796                       # Number of snoops hitting in the snoop filter with a single holder of the requested data.
system.cpu2.l2bus.snoop_filter.tot_requests      1116837                       # Total number of requests made to the snoop filter.
system.cpu2.l2bus.snoop_filter.tot_snoops          796                       # Total number of snoops made to the snoop filter.
system.cpu2.mmucache.mmubus.snoop_filter.hit_multi_requests            0                       # Number of requests hitting in the snoop filter with multiple (>1) holders of the requested data.
system.cpu2.mmucache.mmubus.snoop_filter.hit_multi_snoops            0                       # Number of snoops hitting in the snoop filter with multiple (>1) holders of the requested data.
system.cpu2.mmucache.mmubus.snoop_filter.hit_single_requests            0                       # Number of requests hitting in the snoop filter with a single holder of the requested data.
system.cpu2.mmucache.mmubus.snoop_filter.hit_single_snoops            0                       # Number of snoops hitting in the snoop filter with a single holder of the requested data.
system.cpu2.mmucache.mmubus.snoop_filter.tot_requests            0                       # Total number of requests made to the snoop filter.
system.cpu2.mmucache.mmubus.snoop_filter.tot_snoops            0                       # Total number of snoops made to the snoop filter.
system.cpu2.not_idle_fraction                       1                       # Percentage of non-idle cycles
system.cpu2.numCycles                              30                       # number of cpu cycles simulated
system.cpu2.numWorkItemsCompleted                   0                       # number of work items this cpu completed
system.cpu2.numWorkItemsStarted                     0                       # number of work items this cpu started
system.cpu2.num_busy_cycles                        30                       # Number of busy cycles
system.cpu2.num_cc_register_writes                 12                       # number of times the CC registers were written
system.cpu2.num_conditional_control_insts            0                       # number of instructions that are conditional controls
system.cpu2.num_fp_alu_accesses                    12                       # Number of float alu accesses
system.cpu2.num_fp_insts                           12                       # number of float instructions
system.cpu2.num_fp_register_reads                   6                       # number of times the floating registers were read
system.cpu2.num_fp_register_writes                 12                       # number of times the floating registers were written
system.cpu2.num_func_calls                          0                       # number of times a function call or return occured
system.cpu2.num_idle_cycles                         0                       # Number of idle cycles
system.cpu2.num_int_alu_accesses                   16                       # Number of integer alu accesses
system.cpu2.num_int_insts                          16                       # number of integer instructions
system.cpu2.num_int_register_reads                 24                       # number of times the integer registers were read
system.cpu2.num_int_register_writes                12                       # number of times the integer registers were written
system.cpu2.num_load_insts                          4                       # Number of load instructions
system.cpu2.num_mem_refs                            4                       # number of memory refs
system.cpu2.num_store_insts                         0                       # Number of store instructions
system.cpu2.num_vec_alu_accesses                    0                       # Number of vector alu accesses
system.cpu2.num_vec_insts                           0                       # number of vector instructions
system.cpu2.num_vec_register_reads                  0                       # number of times the vector registers were read
system.cpu2.num_vec_register_writes                 0                       # number of times the vector registers were written
system.cpu2.op_class::No_OpClass                    0      0.00%      0.00% # Class of executed instruction
system.cpu2.op_class::IntAlu                       12     50.00%     50.00% # Class of executed instruction
system.cpu2.op_class::IntMult                       0      0.00%     50.00% # Class of executed instruction
system.cpu2.op_class::IntDiv                        0      0.00%     50.00% # Class of executed instruction
system.cpu2.op_class::FloatAdd                      6     25.00%     75.00% # Class of executed instruction
system.cpu2.op_class::FloatCmp                      0      0.00%     75.00% # Class of executed instruction
system.cpu2.op_class::FloatCvt                      0      0.00%     75.00% # Class of executed instruction
system.cpu2.op_class::FloatMult                     0      0.00%     75.00% # Class of executed instruction
system.cpu2.op_class::FloatMultAcc                  0      0.00%     75.00% # Class of executed instruction
system.cpu2.op_class::FloatDiv                      0      0.00%     75.00% # Class of executed instruction
system.cpu2.op_class::FloatMisc                     0      0.00%     75.00% # Class of executed instruction
system.cpu2.op_class::FloatSqrt                     0      0.00%     75.00% # Class of executed instruction
system.cpu2.op_class::SimdAdd                       0      0.00%     75.00% # Class of executed instruction
system.cpu2.op_class::SimdAddAcc                    0      0.00%     75.00% # Class of executed instruction
system.cpu2.op_class::SimdAlu                       0      0.00%     75.00% # Class of executed instruction
system.cpu2.op_class::SimdCmp                       0      0.00%     75.00% # Class of executed instruction
system.cpu2.op_class::SimdCvt                       0      0.00%     75.00% # Class of executed instruction
system.cpu2.op_class::SimdMisc                      0      0.00%     75.00% # Class of executed instruction
system.cpu2.op_class::SimdMult                      0      0.00%     75.00% # Class of executed instruction
system.cpu2.op_class::SimdMultAcc                   0      0.00%     75.00% # Class of executed instruction
system.cpu2.op_class::SimdShift                     0      0.00%     75.00% # Class of executed instruction
system.cpu2.op_class::SimdShiftAcc                  0      0.00%     75.00% # Class of executed instruction
system.cpu2.op_class::SimdDiv                       0      0.00%     75.00% # Class of executed instruction
system.cpu2.op_class::SimdSqrt                      0      0.00%     75.00% # Class of executed instruction
system.cpu2.op_class::SimdFloatAdd                  2      8.33%     83.33% # Class of executed instruction
system.cpu2.op_class::SimdFloatAlu                  0      0.00%     83.33% # Class of executed instruction
system.cpu2.op_class::SimdFloatCmp                  0      0.00%     83.33% # Class of executed instruction
system.cpu2.op_class::SimdFloatCvt                  0      0.00%     83.33% # Class of executed instruction
system.cpu2.op_class::SimdFloatDiv                  0      0.00%     83.33% # Class of executed instruction
system.cpu2.op_class::SimdFloatMisc                 0      0.00%     83.33% # Class of executed instruction
system.cpu2.op_class::SimdFloatMult                 0      0.00%     83.33% # Class of executed instruction
system.cpu2.op_class::SimdFloatMultAcc              0      0.00%     83.33% # Class of executed instruction
system.cpu2.op_class::SimdFloatSqrt                 0      0.00%     83.33% # Class of executed instruction
system.cpu2.op_class::SimdReduceAdd                 0      0.00%     83.33% # Class of executed instruction
system.cpu2.op_class::SimdReduceAlu                 0      0.00%     83.33% # Class of executed instruction
system.cpu2.op_class::SimdReduceCmp                 0      0.00%     83.33% # Class of executed instruction
system.cpu2.op_class::SimdFloatReduceAdd            0      0.00%     83.33% # Class of executed instruction
system.cpu2.op_class::SimdFloatReduceCmp            0      0.00%     83.33% # Class of executed instruction
system.cpu2.op_class::SimdAes                       0      0.00%     83.33% # Class of executed instruction
system.cpu2.op_class::SimdAesMix                    0      0.00%     83.33% # Class of executed instruction
system.cpu2.op_class::SimdSha1Hash                  0      0.00%     83.33% # Class of executed instruction
system.cpu2.op_class::SimdSha1Hash2                 0      0.00%     83.33% # Class of executed instruction
system.cpu2.op_class::SimdSha256Hash                0      0.00%     83.33% # Class of executed instruction
system.cpu2.op_class::SimdSha256Hash2               0      0.00%     83.33% # Class of executed instruction
system.cpu2.op_class::SimdShaSigma2                 0      0.00%     83.33% # Class of executed instruction
system.cpu2.op_class::SimdShaSigma3                 0      0.00%     83.33% # Class of executed instruction
system.cpu2.op_class::SimdPredAlu                   0      0.00%     83.33% # Class of executed instruction
system.cpu2.op_class::MemRead                       0      0.00%     83.33% # Class of executed instruction
system.cpu2.op_class::MemWrite                      0      0.00%     83.33% # Class of executed instruction
system.cpu2.op_class::FloatMemRead                  4     16.67%    100.00% # Class of executed instruction
system.cpu2.op_class::FloatMemWrite                 0      0.00%    100.00% # Class of executed instruction
system.cpu2.op_class::IprAccess                     0      0.00%    100.00% # Class of executed instruction
system.cpu2.op_class::InstPrefetch                  0      0.00%    100.00% # Class of executed instruction
system.cpu2.op_class::total                        24                       # Class of executed instruction
system.cpu2.workload.numSyscalls                    0                       # Number of system calls
system.cpu3.Branches                                1                       # Number of branches fetched
system.cpu3.committedInsts                         14                       # Number of instructions committed
system.cpu3.committedOps                           23                       # Number of ops (including micro ops) committed
system.cpu3.idle_fraction                           0                       # Percentage of idle cycles
system.cpu3.l2bus.snoop_filter.hit_multi_requests            3                       # Number of requests hitting in the snoop filter with multiple (>1) holders of the requested data.
system.cpu3.l2bus.snoop_filter.hit_multi_snoops            0                       # Number of snoops hitting in the snoop filter with multiple (>1) holders of the requested data.
system.cpu3.l2bus.snoop_filter.hit_single_requests        40462                       # Number of requests hitting in the snoop filter with a single holder of the requested data.
system.cpu3.l2bus.snoop_filter.hit_single_snoops            0                       # Number of snoops hitting in the snoop filter with a single holder of the requested data.
system.cpu3.l2bus.snoop_filter.tot_requests        81752                       # Total number of requests made to the snoop filter.
system.cpu3.l2bus.snoop_filter.tot_snoops            0                       # Total number of snoops made to the snoop filter.
system.cpu3.mmucache.mmubus.snoop_filter.hit_multi_requests            0                       # Number of requests hitting in the snoop filter with multiple (>1) holders of the requested data.
system.cpu3.mmucache.mmubus.snoop_filter.hit_multi_snoops            0                       # Number of snoops hitting in the snoop filter with multiple (>1) holders of the requested data.
system.cpu3.mmucache.mmubus.snoop_filter.hit_single_requests            0                       # Number of requests hitting in the snoop filter with a single holder of the requested data.
system.cpu3.mmucache.mmubus.snoop_filter.hit_single_snoops            0                       # Number of snoops hitting in the snoop filter with a single holder of the requested data.
system.cpu3.mmucache.mmubus.snoop_filter.tot_requests            0                       # Total number of requests made to the snoop filter.
system.cpu3.mmucache.mmubus.snoop_filter.tot_snoops            0                       # Total number of snoops made to the snoop filter.
system.cpu3.not_idle_fraction                       1                       # Percentage of non-idle cycles
system.cpu3.numCycles                              31                       # number of cpu cycles simulated
system.cpu3.numWorkItemsCompleted                   0                       # number of work items this cpu completed
system.cpu3.numWorkItemsStarted                     0                       # number of work items this cpu started
system.cpu3.num_busy_cycles                        31                       # Number of busy cycles
system.cpu3.num_conditional_control_insts            0                       # number of instructions that are conditional controls
system.cpu3.num_fp_alu_accesses                     0                       # Number of float alu accesses
system.cpu3.num_fp_insts                            0                       # number of float instructions
system.cpu3.num_fp_register_reads                   0                       # number of times the floating registers were read
system.cpu3.num_fp_register_writes                  0                       # number of times the floating registers were written
system.cpu3.num_func_calls                          1                       # number of times a function call or return occured
system.cpu3.num_idle_cycles                         0                       # Number of idle cycles
system.cpu3.num_int_alu_accesses                   23                       # Number of integer alu accesses
system.cpu3.num_int_insts                          23                       # number of integer instructions
system.cpu3.num_int_register_reads                 63                       # number of times the integer registers were read
system.cpu3.num_int_register_writes                11                       # number of times the integer registers were written
system.cpu3.num_load_insts                          1                       # Number of load instructions
system.cpu3.num_mem_refs                           12                       # number of memory refs
system.cpu3.num_store_insts                        11                       # Number of store instructions
system.cpu3.num_vec_alu_accesses                    0                       # Number of vector alu accesses
system.cpu3.num_vec_insts                           0                       # number of vector instructions
system.cpu3.num_vec_register_reads                  0                       # number of times the vector registers were read
system.cpu3.num_vec_register_writes                 0                       # number of times the vector registers were written
system.cpu3.op_class::No_OpClass                    0      0.00%      0.00% # Class of executed instruction
system.cpu3.op_class::IntAlu                       11     47.83%     47.83% # Class of executed instruction
system.cpu3.op_class::IntMult                       0      0.00%     47.83% # Class of executed instruction
system.cpu3.op_class::IntDiv                        0      0.00%     47.83% # Class of executed instruction
system.cpu3.op_class::FloatAdd                      0      0.00%     47.83% # Class of executed instruction
system.cpu3.op_class::FloatCmp                      0      0.00%     47.83% # Class of executed instruction
system.cpu3.op_class::FloatCvt                      0      0.00%     47.83% # Class of executed instruction
system.cpu3.op_class::FloatMult                     0      0.00%     47.83% # Class of executed instruction
system.cpu3.op_class::FloatMultAcc                  0      0.00%     47.83% # Class of executed instruction
system.cpu3.op_class::FloatDiv                      0      0.00%     47.83% # Class of executed instruction
system.cpu3.op_class::FloatMisc                     0      0.00%     47.83% # Class of executed instruction
system.cpu3.op_class::FloatSqrt                     0      0.00%     47.83% # Class of executed instruction
system.cpu3.op_class::SimdAdd                       0      0.00%     47.83% # Class of executed instruction
system.cpu3.op_class::SimdAddAcc                    0      0.00%     47.83% # Class of executed instruction
system.cpu3.op_class::SimdAlu                       0      0.00%     47.83% # Class of executed instruction
system.cpu3.op_class::SimdCmp                       0      0.00%     47.83% # Class of executed instruction
system.cpu3.op_class::SimdCvt                       0      0.00%     47.83% # Class of executed instruction
system.cpu3.op_class::SimdMisc                      0      0.00%     47.83% # Class of executed instruction
system.cpu3.op_class::SimdMult                      0      0.00%     47.83% # Class of executed instruction
system.cpu3.op_class::SimdMultAcc                   0      0.00%     47.83% # Class of executed instruction
system.cpu3.op_class::SimdShift                     0      0.00%     47.83% # Class of executed instruction
system.cpu3.op_class::SimdShiftAcc                  0      0.00%     47.83% # Class of executed instruction
system.cpu3.op_class::SimdDiv                       0      0.00%     47.83% # Class of executed instruction
system.cpu3.op_class::SimdSqrt                      0      0.00%     47.83% # Class of executed instruction
system.cpu3.op_class::SimdFloatAdd                  0      0.00%     47.83% # Class of executed instruction
system.cpu3.op_class::SimdFloatAlu                  0      0.00%     47.83% # Class of executed instruction
system.cpu3.op_class::SimdFloatCmp                  0      0.00%     47.83% # Class of executed instruction
system.cpu3.op_class::SimdFloatCvt                  0      0.00%     47.83% # Class of executed instruction
system.cpu3.op_class::SimdFloatDiv                  0      0.00%     47.83% # Class of executed instruction
system.cpu3.op_class::SimdFloatMisc                 0      0.00%     47.83% # Class of executed instruction
system.cpu3.op_class::SimdFloatMult                 0      0.00%     47.83% # Class of executed instruction
system.cpu3.op_class::SimdFloatMultAcc              0      0.00%     47.83% # Class of executed instruction
system.cpu3.op_class::SimdFloatSqrt                 0      0.00%     47.83% # Class of executed instruction
system.cpu3.op_class::SimdReduceAdd                 0      0.00%     47.83% # Class of executed instruction
system.cpu3.op_class::SimdReduceAlu                 0      0.00%     47.83% # Class of executed instruction
system.cpu3.op_class::SimdReduceCmp                 0      0.00%     47.83% # Class of executed instruction
system.cpu3.op_class::SimdFloatReduceAdd            0      0.00%     47.83% # Class of executed instruction
system.cpu3.op_class::SimdFloatReduceCmp            0      0.00%     47.83% # Class of executed instruction
system.cpu3.op_class::SimdAes                       0      0.00%     47.83% # Class of executed instruction
system.cpu3.op_class::SimdAesMix                    0      0.00%     47.83% # Class of executed instruction
system.cpu3.op_class::SimdSha1Hash                  0      0.00%     47.83% # Class of executed instruction
system.cpu3.op_class::SimdSha1Hash2                 0      0.00%     47.83% # Class of executed instruction
system.cpu3.op_class::SimdSha256Hash                0      0.00%     47.83% # Class of executed instruction
system.cpu3.op_class::SimdSha256Hash2               0      0.00%     47.83% # Class of executed instruction
system.cpu3.op_class::SimdShaSigma2                 0      0.00%     47.83% # Class of executed instruction
system.cpu3.op_class::SimdShaSigma3                 0      0.00%     47.83% # Class of executed instruction
system.cpu3.op_class::SimdPredAlu                   0      0.00%     47.83% # Class of executed instruction
system.cpu3.op_class::MemRead                       1      4.35%     52.17% # Class of executed instruction
system.cpu3.op_class::MemWrite                     11     47.83%    100.00% # Class of executed instruction
system.cpu3.op_class::FloatMemRead                  0      0.00%    100.00% # Class of executed instruction
system.cpu3.op_class::FloatMemWrite                 0      0.00%    100.00% # Class of executed instruction
system.cpu3.op_class::IprAccess                     0      0.00%    100.00% # Class of executed instruction
system.cpu3.op_class::InstPrefetch                  0      0.00%    100.00% # Class of executed instruction
system.cpu3.op_class::total                        23                       # Class of executed instruction
system.cpu3.workload.numSyscalls                    0                       # Number of system calls
system.l3bus.snoop_filter.hit_multi_requests            0                       # Number of requests hitting in the snoop filter with multiple (>1) holders of the requested data.
system.l3bus.snoop_filter.hit_multi_snoops            0                       # Number of snoops hitting in the snoop filter with multiple (>1) holders of the requested data.
system.l3bus.snoop_filter.hit_single_requests      2782757                       # Number of requests hitting in the snoop filter with a single holder of the requested data.
system.l3bus.snoop_filter.hit_single_snoops            0                       # Number of snoops hitting in the snoop filter with a single holder of the requested data.
system.l3bus.snoop_filter.tot_requests        5587214                       # Total number of requests made to the snoop filter.
system.l3bus.snoop_filter.tot_snoops                0                       # Total number of snoops made to the snoop filter.
system.membus.snoop_filter.hit_multi_requests            0                       # Number of requests hitting in the snoop filter with multiple (>1) holders of the requested data.
system.membus.snoop_filter.hit_multi_snoops            0                       # Number of snoops hitting in the snoop filter with multiple (>1) holders of the requested data.
system.membus.snoop_filter.hit_single_requests      2247968                       # Number of requests hitting in the snoop filter with a single holder of the requested data.
system.membus.snoop_filter.hit_single_snoops            0                       # Number of snoops hitting in the snoop filter with a single holder of the requested data.
system.membus.snoop_filter.tot_requests       4575853                       # Total number of requests made to the snoop filter.
system.membus.snoop_filter.tot_snoops               0                       # Total number of snoops made to the snoop filter.
system.switch_cpus0.cc_regfile_reads          2791759                       # number of cc regfile reads
system.switch_cpus0.cc_regfile_writes         1321257                       # number of cc regfile writes
system.switch_cpus0.committedInsts           77677861                       # Number of Instructions Simulated
system.switch_cpus0.committedOps             85395046                       # Number of Ops (including micro ops) Simulated
system.switch_cpus0.cpi                      1.636530                       # CPI: Cycles Per Instruction
system.switch_cpus0.cpi_total                1.636530                       # CPI: Total CPI of All Threads
system.switch_cpus0.fp_regfile_reads        142681212                       # number of floating regfile reads
system.switch_cpus0.fp_regfile_writes        64374170                       # number of floating regfile writes
system.switch_cpus0.idleCycles                  10890                       # Total number of cycles that the CPU has spent unscheduled due to idling
system.switch_cpus0.iew.branchMispredicts         1683                       # Number of branch mispredicts detected at execute
system.switch_cpus0.iew.exec_branches          492814                       # Number of branches executed
system.switch_cpus0.iew.exec_nop                    0                       # number of nop insts executed
system.switch_cpus0.iew.exec_rate            0.802720                       # Inst execution rate
system.switch_cpus0.iew.exec_refs            50154174                       # number of memory reference insts executed
system.switch_cpus0.iew.exec_stores           9556387                       # Number of stores executed
system.switch_cpus0.iew.exec_swp                    0                       # number of swp insts executed
system.switch_cpus0.iew.iewBlockCycles       26050887                       # Number of cycles IEW is blocking
system.switch_cpus0.iew.iewDispLoadInsts     24005662                       # Number of dispatched load instructions
system.switch_cpus0.iew.iewDispNonSpecInsts            0                       # Number of dispatched non-speculative instructions
system.switch_cpus0.iew.iewDispSquashedInsts          117                       # Number of squashed instructions skipped by dispatch
system.switch_cpus0.iew.iewDispStoreInsts      9570755                       # Number of dispatched store instructions
system.switch_cpus0.iew.iewDispatchedInsts     85472868                       # Number of instructions dispatched to IQ
system.switch_cpus0.iew.iewExecLoadInsts     40597787                       # Number of load instructions executed
system.switch_cpus0.iew.iewExecSquashedInsts          935                       # Number of squashed instructions skipped in execute
system.switch_cpus0.iew.iewExecutedInsts    102043534                       # Number of executed instructions
system.switch_cpus0.iew.iewIQFullEvents        221764                       # Number of times the IQ has become full, causing a stall
system.switch_cpus0.iew.iewIdleCycles               0                       # Number of cycles IEW is idle
system.switch_cpus0.iew.iewLSQFullEvents     22084616                       # Number of times the LSQ has become full, causing a stall
system.switch_cpus0.iew.iewSquashCycles          2002                       # Number of cycles IEW is squashing
system.switch_cpus0.iew.iewUnblockCycles     22341706                       # Number of cycles IEW is unblocking
system.switch_cpus0.iew.memOrderViolationEvents          663                       # Number of memory order violations
system.switch_cpus0.iew.predictedNotTakenIncorrect         1666                       # Number of branches that were predicted not taken incorrectly
system.switch_cpus0.iew.predictedTakenIncorrect           17                       # Number of branches that were predicted taken incorrectly
system.switch_cpus0.iew.wb_consumers        117623858                       # num instructions consuming a value
system.switch_cpus0.iew.wb_count             85433434                       # cumulative count of insts written-back
system.switch_cpus0.iew.wb_fanout            0.534296                       # average fanout of values written-back
system.switch_cpus0.iew.wb_producers         62845949                       # num instructions producing a value
system.switch_cpus0.iew.wb_rate              0.672058                       # insts written-back per cycle
system.switch_cpus0.iew.wb_sent              85433999                       # cumulative count of insts sent to commit
system.switch_cpus0.int_regfile_reads       111218868                       # number of integer regfile reads
system.switch_cpus0.int_regfile_writes       11010722                       # number of integer regfile writes
system.switch_cpus0.ipc                      0.611049                       # IPC: Instructions Per Cycle
system.switch_cpus0.ipc_total                0.611049                       # IPC: Total IPC of All Threads
system.switch_cpus0.iq.FU_type_0::No_OpClass            0      0.00%      0.00% # Type of FU issued
system.switch_cpus0.iq.FU_type_0::IntAlu     12415451     12.17%     12.17% # Type of FU issued
system.switch_cpus0.iq.FU_type_0::IntMult            0      0.00%     12.17% # Type of FU issued
system.switch_cpus0.iq.FU_type_0::IntDiv            0      0.00%     12.17% # Type of FU issued
system.switch_cpus0.iq.FU_type_0::FloatAdd            0      0.00%     12.17% # Type of FU issued
system.switch_cpus0.iq.FU_type_0::FloatCmp            0      0.00%     12.17% # Type of FU issued
system.switch_cpus0.iq.FU_type_0::FloatCvt            0      0.00%     12.17% # Type of FU issued
system.switch_cpus0.iq.FU_type_0::FloatMult            0      0.00%     12.17% # Type of FU issued
system.switch_cpus0.iq.FU_type_0::FloatMultAcc            0      0.00%     12.17% # Type of FU issued
system.switch_cpus0.iq.FU_type_0::FloatDiv            0      0.00%     12.17% # Type of FU issued
system.switch_cpus0.iq.FU_type_0::FloatMisc            0      0.00%     12.17% # Type of FU issued
system.switch_cpus0.iq.FU_type_0::FloatSqrt            0      0.00%     12.17% # Type of FU issued
system.switch_cpus0.iq.FU_type_0::SimdAdd            0      0.00%     12.17% # Type of FU issued
system.switch_cpus0.iq.FU_type_0::SimdAddAcc            0      0.00%     12.17% # Type of FU issued
system.switch_cpus0.iq.FU_type_0::SimdAlu           14      0.00%     12.17% # Type of FU issued
system.switch_cpus0.iq.FU_type_0::SimdCmp            0      0.00%     12.17% # Type of FU issued
system.switch_cpus0.iq.FU_type_0::SimdCvt            0      0.00%     12.17% # Type of FU issued
system.switch_cpus0.iq.FU_type_0::SimdMisc            0      0.00%     12.17% # Type of FU issued
system.switch_cpus0.iq.FU_type_0::SimdMult            0      0.00%     12.17% # Type of FU issued
system.switch_cpus0.iq.FU_type_0::SimdMultAcc            0      0.00%     12.17% # Type of FU issued
system.switch_cpus0.iq.FU_type_0::SimdShift            0      0.00%     12.17% # Type of FU issued
system.switch_cpus0.iq.FU_type_0::SimdShiftAcc            0      0.00%     12.17% # Type of FU issued
system.switch_cpus0.iq.FU_type_0::SimdDiv            0      0.00%     12.17% # Type of FU issued
system.switch_cpus0.iq.FU_type_0::SimdSqrt            0      0.00%     12.17% # Type of FU issued
system.switch_cpus0.iq.FU_type_0::SimdFloatAdd     24292568     23.81%     35.97% # Type of FU issued
system.switch_cpus0.iq.FU_type_0::SimdFloatAlu            0      0.00%     35.97% # Type of FU issued
system.switch_cpus0.iq.FU_type_0::SimdFloatCmp            0      0.00%     35.97% # Type of FU issued
system.switch_cpus0.iq.FU_type_0::SimdFloatCvt            0      0.00%     35.97% # Type of FU issued
system.switch_cpus0.iq.FU_type_0::SimdFloatDiv       479409      0.47%     36.44% # Type of FU issued
system.switch_cpus0.iq.FU_type_0::SimdFloatMisc            0      0.00%     36.44% # Type of FU issued
system.switch_cpus0.iq.FU_type_0::SimdFloatMult     14701963     14.41%     50.85% # Type of FU issued
system.switch_cpus0.iq.FU_type_0::SimdFloatMultAcc            0      0.00%     50.85% # Type of FU issued
system.switch_cpus0.iq.FU_type_0::SimdFloatSqrt            0      0.00%     50.85% # Type of FU issued
system.switch_cpus0.iq.FU_type_0::SimdReduceAdd            0      0.00%     50.85% # Type of FU issued
system.switch_cpus0.iq.FU_type_0::SimdReduceAlu            0      0.00%     50.85% # Type of FU issued
system.switch_cpus0.iq.FU_type_0::SimdReduceCmp            0      0.00%     50.85% # Type of FU issued
system.switch_cpus0.iq.FU_type_0::SimdFloatReduceAdd            0      0.00%     50.85% # Type of FU issued
system.switch_cpus0.iq.FU_type_0::SimdFloatReduceCmp            0      0.00%     50.85% # Type of FU issued
system.switch_cpus0.iq.FU_type_0::SimdAes            0      0.00%     50.85% # Type of FU issued
system.switch_cpus0.iq.FU_type_0::SimdAesMix            0      0.00%     50.85% # Type of FU issued
system.switch_cpus0.iq.FU_type_0::SimdSha1Hash            0      0.00%     50.85% # Type of FU issued
system.switch_cpus0.iq.FU_type_0::SimdSha1Hash2            0      0.00%     50.85% # Type of FU issued
system.switch_cpus0.iq.FU_type_0::SimdSha256Hash            0      0.00%     50.85% # Type of FU issued
system.switch_cpus0.iq.FU_type_0::SimdSha256Hash2            0      0.00%     50.85% # Type of FU issued
system.switch_cpus0.iq.FU_type_0::SimdShaSigma2            0      0.00%     50.85% # Type of FU issued
system.switch_cpus0.iq.FU_type_0::SimdShaSigma3            0      0.00%     50.85% # Type of FU issued
system.switch_cpus0.iq.FU_type_0::SimdPredAlu            0      0.00%     50.85% # Type of FU issued
system.switch_cpus0.iq.FU_type_0::MemRead     13731213     13.46%     64.31% # Type of FU issued
system.switch_cpus0.iq.FU_type_0::MemWrite            6      0.00%     64.31% # Type of FU issued
system.switch_cpus0.iq.FU_type_0::FloatMemRead     26867450     26.33%     90.64% # Type of FU issued
system.switch_cpus0.iq.FU_type_0::FloatMemWrite      9556395      9.36%    100.00% # Type of FU issued
system.switch_cpus0.iq.FU_type_0::IprAccess            0      0.00%    100.00% # Type of FU issued
system.switch_cpus0.iq.FU_type_0::InstPrefetch            0      0.00%    100.00% # Type of FU issued
system.switch_cpus0.iq.FU_type_0::total     102044469                       # Type of FU issued
system.switch_cpus0.iq.fp_alu_accesses       92227166                       # Number of floating point alu accesses
system.switch_cpus0.iq.fp_inst_queue_reads    175476779                       # Number of floating instruction queue reads
system.switch_cpus0.iq.fp_inst_queue_wakeup_accesses     73930333                       # Number of floating instruction queue wakeup accesses
system.switch_cpus0.iq.fp_inst_queue_writes     74012971                       # Number of floating instruction queue writes
system.switch_cpus0.iq.fu_busy_cnt           11565373                       # FU busy when requested
system.switch_cpus0.iq.fu_busy_rate          0.113337                       # FU busy rate (busy events/executed inst)
system.switch_cpus0.iq.fu_full::No_OpClass            0      0.00%      0.00% # attempts to use FU when none available
system.switch_cpus0.iq.fu_full::IntAlu         156213      1.35%      1.35% # attempts to use FU when none available
system.switch_cpus0.iq.fu_full::IntMult             0      0.00%      1.35% # attempts to use FU when none available
system.switch_cpus0.iq.fu_full::IntDiv              0      0.00%      1.35% # attempts to use FU when none available
system.switch_cpus0.iq.fu_full::FloatAdd            0      0.00%      1.35% # attempts to use FU when none available
system.switch_cpus0.iq.fu_full::FloatCmp            0      0.00%      1.35% # attempts to use FU when none available
system.switch_cpus0.iq.fu_full::FloatCvt            0      0.00%      1.35% # attempts to use FU when none available
system.switch_cpus0.iq.fu_full::FloatMult            0      0.00%      1.35% # attempts to use FU when none available
system.switch_cpus0.iq.fu_full::FloatMultAcc            0      0.00%      1.35% # attempts to use FU when none available
system.switch_cpus0.iq.fu_full::FloatDiv            0      0.00%      1.35% # attempts to use FU when none available
system.switch_cpus0.iq.fu_full::FloatMisc            0      0.00%      1.35% # attempts to use FU when none available
system.switch_cpus0.iq.fu_full::FloatSqrt            0      0.00%      1.35% # attempts to use FU when none available
system.switch_cpus0.iq.fu_full::SimdAdd             0      0.00%      1.35% # attempts to use FU when none available
system.switch_cpus0.iq.fu_full::SimdAddAcc            0      0.00%      1.35% # attempts to use FU when none available
system.switch_cpus0.iq.fu_full::SimdAlu             0      0.00%      1.35% # attempts to use FU when none available
system.switch_cpus0.iq.fu_full::SimdCmp             0      0.00%      1.35% # attempts to use FU when none available
system.switch_cpus0.iq.fu_full::SimdCvt             0      0.00%      1.35% # attempts to use FU when none available
system.switch_cpus0.iq.fu_full::SimdMisc            0      0.00%      1.35% # attempts to use FU when none available
system.switch_cpus0.iq.fu_full::SimdMult            0      0.00%      1.35% # attempts to use FU when none available
system.switch_cpus0.iq.fu_full::SimdMultAcc            0      0.00%      1.35% # attempts to use FU when none available
system.switch_cpus0.iq.fu_full::SimdShift            0      0.00%      1.35% # attempts to use FU when none available
system.switch_cpus0.iq.fu_full::SimdShiftAcc            0      0.00%      1.35% # attempts to use FU when none available
system.switch_cpus0.iq.fu_full::SimdDiv             0      0.00%      1.35% # attempts to use FU when none available
system.switch_cpus0.iq.fu_full::SimdSqrt            0      0.00%      1.35% # attempts to use FU when none available
system.switch_cpus0.iq.fu_full::SimdFloatAdd      1866637     16.14%     17.49% # attempts to use FU when none available
system.switch_cpus0.iq.fu_full::SimdFloatAlu            0      0.00%     17.49% # attempts to use FU when none available
system.switch_cpus0.iq.fu_full::SimdFloatCmp            0      0.00%     17.49% # attempts to use FU when none available
system.switch_cpus0.iq.fu_full::SimdFloatCvt            0      0.00%     17.49% # attempts to use FU when none available
system.switch_cpus0.iq.fu_full::SimdFloatDiv            0      0.00%     17.49% # attempts to use FU when none available
system.switch_cpus0.iq.fu_full::SimdFloatMisc            0      0.00%     17.49% # attempts to use FU when none available
system.switch_cpus0.iq.fu_full::SimdFloatMult      1553932     13.44%     30.93% # attempts to use FU when none available
system.switch_cpus0.iq.fu_full::SimdFloatMultAcc            0      0.00%     30.93% # attempts to use FU when none available
system.switch_cpus0.iq.fu_full::SimdFloatSqrt            0      0.00%     30.93% # attempts to use FU when none available
system.switch_cpus0.iq.fu_full::SimdReduceAdd            0      0.00%     30.93% # attempts to use FU when none available
system.switch_cpus0.iq.fu_full::SimdReduceAlu            0      0.00%     30.93% # attempts to use FU when none available
system.switch_cpus0.iq.fu_full::SimdReduceCmp            0      0.00%     30.93% # attempts to use FU when none available
system.switch_cpus0.iq.fu_full::SimdFloatReduceAdd            0      0.00%     30.93% # attempts to use FU when none available
system.switch_cpus0.iq.fu_full::SimdFloatReduceCmp            0      0.00%     30.93% # attempts to use FU when none available
system.switch_cpus0.iq.fu_full::SimdAes             0      0.00%     30.93% # attempts to use FU when none available
system.switch_cpus0.iq.fu_full::SimdAesMix            0      0.00%     30.93% # attempts to use FU when none available
system.switch_cpus0.iq.fu_full::SimdSha1Hash            0      0.00%     30.93% # attempts to use FU when none available
system.switch_cpus0.iq.fu_full::SimdSha1Hash2            0      0.00%     30.93% # attempts to use FU when none available
system.switch_cpus0.iq.fu_full::SimdSha256Hash            0      0.00%     30.93% # attempts to use FU when none available
system.switch_cpus0.iq.fu_full::SimdSha256Hash2            0      0.00%     30.93% # attempts to use FU when none available
system.switch_cpus0.iq.fu_full::SimdShaSigma2            0      0.00%     30.93% # attempts to use FU when none available
system.switch_cpus0.iq.fu_full::SimdShaSigma3            0      0.00%     30.93% # attempts to use FU when none available
system.switch_cpus0.iq.fu_full::SimdPredAlu            0      0.00%     30.93% # attempts to use FU when none available
system.switch_cpus0.iq.fu_full::MemRead       2587519     22.37%     53.30% # attempts to use FU when none available
system.switch_cpus0.iq.fu_full::MemWrite            0      0.00%     53.30% # attempts to use FU when none available
system.switch_cpus0.iq.fu_full::FloatMemRead      4734888     40.94%     94.24% # attempts to use FU when none available
system.switch_cpus0.iq.fu_full::FloatMemWrite       666184      5.76%    100.00% # attempts to use FU when none available
system.switch_cpus0.iq.fu_full::IprAccess            0      0.00%    100.00% # attempts to use FU when none available
system.switch_cpus0.iq.fu_full::InstPrefetch            0      0.00%    100.00% # attempts to use FU when none available
system.switch_cpus0.iq.int_alu_accesses      21382676                       # Number of integer alu accesses
system.switch_cpus0.iq.int_inst_queue_reads    167289573                       # Number of integer instruction queue reads
system.switch_cpus0.iq.int_inst_queue_wakeup_accesses     11503101                       # Number of integer instruction queue wakeup accesses
system.switch_cpus0.iq.int_inst_queue_writes     11538330                       # Number of integer instruction queue writes
system.switch_cpus0.iq.iqInstsAdded          85472868                       # Number of instructions added to the IQ (excludes non-spec)
system.switch_cpus0.iq.iqInstsIssued        102044469                       # Number of instructions issued
system.switch_cpus0.iq.iqSquashedInstsExamined        77770                       # Number of squashed instructions iterated over during squash; mainly for profiling
system.switch_cpus0.iq.iqSquashedInstsIssued          781                       # Number of squashed instructions issued
system.switch_cpus0.iq.iqSquashedOperandsExamined       132242                       # Number of squashed operands that are examined and possibly removed from graph
system.switch_cpus0.iq.issued_per_cycle::samples    127111260                       # Number of insts issued each cycle
system.switch_cpus0.iq.issued_per_cycle::mean     0.802796                       # Number of insts issued each cycle
system.switch_cpus0.iq.issued_per_cycle::stdev     1.919652                       # Number of insts issued each cycle
system.switch_cpus0.iq.issued_per_cycle::underflows            0      0.00%      0.00% # Number of insts issued each cycle
system.switch_cpus0.iq.issued_per_cycle::0    104004858     81.82%     81.82% # Number of insts issued each cycle
system.switch_cpus0.iq.issued_per_cycle::1      2478414      1.95%     83.77% # Number of insts issued each cycle
system.switch_cpus0.iq.issued_per_cycle::2      2511293      1.98%     85.75% # Number of insts issued each cycle
system.switch_cpus0.iq.issued_per_cycle::3      2070468      1.63%     87.38% # Number of insts issued each cycle
system.switch_cpus0.iq.issued_per_cycle::4      5535562      4.35%     91.73% # Number of insts issued each cycle
system.switch_cpus0.iq.issued_per_cycle::5      3496154      2.75%     94.48% # Number of insts issued each cycle
system.switch_cpus0.iq.issued_per_cycle::6      2690223      2.12%     96.60% # Number of insts issued each cycle
system.switch_cpus0.iq.issued_per_cycle::7      2026595      1.59%     98.19% # Number of insts issued each cycle
system.switch_cpus0.iq.issued_per_cycle::8      2297693      1.81%    100.00% # Number of insts issued each cycle
system.switch_cpus0.iq.issued_per_cycle::overflows            0      0.00%    100.00% # Number of insts issued each cycle
system.switch_cpus0.iq.issued_per_cycle::min_value            0                       # Number of insts issued each cycle
system.switch_cpus0.iq.issued_per_cycle::max_value            8                       # Number of insts issued each cycle
system.switch_cpus0.iq.issued_per_cycle::total    127111260                       # Number of insts issued each cycle
system.switch_cpus0.iq.rate                  0.802728                       # Inst issue rate
system.switch_cpus0.iq.vec_alu_accesses             0                       # Number of vector alu accesses
system.switch_cpus0.iq.vec_inst_queue_reads            0                       # Number of vector instruction queue reads
system.switch_cpus0.iq.vec_inst_queue_wakeup_accesses            0                       # Number of vector instruction queue wakeup accesses
system.switch_cpus0.iq.vec_inst_queue_writes            0                       # Number of vector instruction queue writes
system.switch_cpus0.memDep0.conflictingLoads       816603                       # Number of conflicting loads.
system.switch_cpus0.memDep0.conflictingStores       232469                       # Number of conflicting stores.
system.switch_cpus0.memDep0.insertedLoads     24005662                       # Number of loads inserted to the mem dependence unit.
system.switch_cpus0.memDep0.insertedStores      9570755                       # Number of stores inserted to the mem dependence unit.
system.switch_cpus0.misc_regfile_reads       52738144                       # number of misc regfile reads
system.switch_cpus0.misc_regfile_writes             1                       # number of misc regfile writes
system.switch_cpus0.numCycles               127122150                       # number of cpu cycles simulated
system.switch_cpus0.numWorkItemsCompleted            0                       # number of work items this cpu completed
system.switch_cpus0.numWorkItemsStarted             0                       # number of work items this cpu started
system.switch_cpus0.timesIdled                     40                       # Number of times that the entire CPU went into an idle state and unscheduled itself
system.switch_cpus1.cc_regfile_reads         77815982                       # number of cc regfile reads
system.switch_cpus1.cc_regfile_writes        31618222                       # number of cc regfile writes
system.switch_cpus1.committedInsts           51446047                       # Number of Instructions Simulated
system.switch_cpus1.committedOps             88657815                       # Number of Ops (including micro ops) Simulated
system.switch_cpus1.cpi                      2.470980                       # CPI: Cycles Per Instruction
system.switch_cpus1.cpi_total                2.470980                       # CPI: Total CPI of All Threads
system.switch_cpus1.fp_regfile_writes              56                       # number of floating regfile writes
system.switch_cpus1.idleCycles                  15020                       # Total number of cycles that the CPU has spent unscheduled due to idling
system.switch_cpus1.iew.branchMispredicts      1205310                       # Number of branch mispredicts detected at execute
system.switch_cpus1.iew.exec_branches        20575623                       # Number of branches executed
system.switch_cpus1.iew.exec_nop                    0                       # number of nop insts executed
system.switch_cpus1.iew.exec_rate            1.112169                       # Inst execution rate
system.switch_cpus1.iew.exec_refs            35116508                       # number of memory reference insts executed
system.switch_cpus1.iew.exec_stores           7317943                       # Number of stores executed
system.switch_cpus1.iew.exec_swp                    0                       # number of swp insts executed
system.switch_cpus1.iew.iewBlockCycles       70846295                       # Number of cycles IEW is blocking
system.switch_cpus1.iew.iewDispLoadInsts     31899004                       # Number of dispatched load instructions
system.switch_cpus1.iew.iewDispNonSpecInsts            0                       # Number of dispatched non-speculative instructions
system.switch_cpus1.iew.iewDispSquashedInsts        42975                       # Number of squashed instructions skipped by dispatch
system.switch_cpus1.iew.iewDispStoreInsts      8243149                       # Number of dispatched store instructions
system.switch_cpus1.iew.iewDispatchedInsts    161216215                       # Number of instructions dispatched to IQ
system.switch_cpus1.iew.iewExecLoadInsts     27798565                       # Number of load instructions executed
system.switch_cpus1.iew.iewExecSquashedInsts      3630572                       # Number of squashed instructions skipped in execute
system.switch_cpus1.iew.iewExecutedInsts    141381359                       # Number of executed instructions
system.switch_cpus1.iew.iewIQFullEvents        161373                       # Number of times the IQ has become full, causing a stall
system.switch_cpus1.iew.iewIdleCycles               0                       # Number of cycles IEW is idle
system.switch_cpus1.iew.iewLSQFullEvents      6178890                       # Number of times the LSQ has become full, causing a stall
system.switch_cpus1.iew.iewSquashCycles       1165654                       # Number of cycles IEW is squashing
system.switch_cpus1.iew.iewUnblockCycles      6478988                       # Number of cycles IEW is unblocking
system.switch_cpus1.iew.memOrderViolationEvents         2941                       # Number of memory order violations
system.switch_cpus1.iew.predictedNotTakenIncorrect       659107                       # Number of branches that were predicted not taken incorrectly
system.switch_cpus1.iew.predictedTakenIncorrect       546203                       # Number of branches that were predicted taken incorrectly
system.switch_cpus1.iew.wb_consumers        147674228                       # num instructions consuming a value
system.switch_cpus1.iew.wb_count            139683567                       # cumulative count of insts written-back
system.switch_cpus1.iew.wb_fanout            0.655322                       # average fanout of values written-back
system.switch_cpus1.iew.wb_producers         96774227                       # num instructions producing a value
system.switch_cpus1.iew.wb_rate              1.098814                       # insts written-back per cycle
system.switch_cpus1.iew.wb_sent             140637946                       # cumulative count of insts sent to commit
system.switch_cpus1.int_regfile_reads       202511905                       # number of integer regfile reads
system.switch_cpus1.int_regfile_writes      113560461                       # number of integer regfile writes
system.switch_cpus1.ipc                      0.404698                       # IPC: Instructions Per Cycle
system.switch_cpus1.ipc_total                0.404698                       # IPC: Total IPC of All Threads
system.switch_cpus1.iq.FU_type_0::No_OpClass        59935      0.04%      0.04% # Type of FU issued
system.switch_cpus1.iq.FU_type_0::IntAlu    107796078     74.34%     74.38% # Type of FU issued
system.switch_cpus1.iq.FU_type_0::IntMult       147192      0.10%     74.48% # Type of FU issued
system.switch_cpus1.iq.FU_type_0::IntDiv       372053      0.26%     74.74% # Type of FU issued
system.switch_cpus1.iq.FU_type_0::FloatAdd            0      0.00%     74.74% # Type of FU issued
system.switch_cpus1.iq.FU_type_0::FloatCmp            0      0.00%     74.74% # Type of FU issued
system.switch_cpus1.iq.FU_type_0::FloatCvt            0      0.00%     74.74% # Type of FU issued
system.switch_cpus1.iq.FU_type_0::FloatMult            0      0.00%     74.74% # Type of FU issued
system.switch_cpus1.iq.FU_type_0::FloatMultAcc            0      0.00%     74.74% # Type of FU issued
system.switch_cpus1.iq.FU_type_0::FloatDiv            0      0.00%     74.74% # Type of FU issued
system.switch_cpus1.iq.FU_type_0::FloatMisc            0      0.00%     74.74% # Type of FU issued
system.switch_cpus1.iq.FU_type_0::FloatSqrt            0      0.00%     74.74% # Type of FU issued
system.switch_cpus1.iq.FU_type_0::SimdAdd            0      0.00%     74.74% # Type of FU issued
system.switch_cpus1.iq.FU_type_0::SimdAddAcc            0      0.00%     74.74% # Type of FU issued
system.switch_cpus1.iq.FU_type_0::SimdAlu            0      0.00%     74.74% # Type of FU issued
system.switch_cpus1.iq.FU_type_0::SimdCmp            0      0.00%     74.74% # Type of FU issued
system.switch_cpus1.iq.FU_type_0::SimdCvt            0      0.00%     74.74% # Type of FU issued
system.switch_cpus1.iq.FU_type_0::SimdMisc            0      0.00%     74.74% # Type of FU issued
system.switch_cpus1.iq.FU_type_0::SimdMult            0      0.00%     74.74% # Type of FU issued
system.switch_cpus1.iq.FU_type_0::SimdMultAcc            0      0.00%     74.74% # Type of FU issued
system.switch_cpus1.iq.FU_type_0::SimdShift            0      0.00%     74.74% # Type of FU issued
system.switch_cpus1.iq.FU_type_0::SimdShiftAcc            0      0.00%     74.74% # Type of FU issued
system.switch_cpus1.iq.FU_type_0::SimdDiv            0      0.00%     74.74% # Type of FU issued
system.switch_cpus1.iq.FU_type_0::SimdSqrt            0      0.00%     74.74% # Type of FU issued
system.switch_cpus1.iq.FU_type_0::SimdFloatAdd            0      0.00%     74.74% # Type of FU issued
system.switch_cpus1.iq.FU_type_0::SimdFloatAlu            0      0.00%     74.74% # Type of FU issued
system.switch_cpus1.iq.FU_type_0::SimdFloatCmp            0      0.00%     74.74% # Type of FU issued
system.switch_cpus1.iq.FU_type_0::SimdFloatCvt            0      0.00%     74.74% # Type of FU issued
system.switch_cpus1.iq.FU_type_0::SimdFloatDiv            0      0.00%     74.74% # Type of FU issued
system.switch_cpus1.iq.FU_type_0::SimdFloatMisc            0      0.00%     74.74% # Type of FU issued
system.switch_cpus1.iq.FU_type_0::SimdFloatMult            0      0.00%     74.74% # Type of FU issued
system.switch_cpus1.iq.FU_type_0::SimdFloatMultAcc            0      0.00%     74.74% # Type of FU issued
system.switch_cpus1.iq.FU_type_0::SimdFloatSqrt            0      0.00%     74.74% # Type of FU issued
system.switch_cpus1.iq.FU_type_0::SimdReduceAdd            0      0.00%     74.74% # Type of FU issued
system.switch_cpus1.iq.FU_type_0::SimdReduceAlu            0      0.00%     74.74% # Type of FU issued
system.switch_cpus1.iq.FU_type_0::SimdReduceCmp            0      0.00%     74.74% # Type of FU issued
system.switch_cpus1.iq.FU_type_0::SimdFloatReduceAdd            0      0.00%     74.74% # Type of FU issued
system.switch_cpus1.iq.FU_type_0::SimdFloatReduceCmp            0      0.00%     74.74% # Type of FU issued
system.switch_cpus1.iq.FU_type_0::SimdAes            0      0.00%     74.74% # Type of FU issued
system.switch_cpus1.iq.FU_type_0::SimdAesMix            0      0.00%     74.74% # Type of FU issued
system.switch_cpus1.iq.FU_type_0::SimdSha1Hash            0      0.00%     74.74% # Type of FU issued
system.switch_cpus1.iq.FU_type_0::SimdSha1Hash2            0      0.00%     74.74% # Type of FU issued
system.switch_cpus1.iq.FU_type_0::SimdSha256Hash            0      0.00%     74.74% # Type of FU issued
system.switch_cpus1.iq.FU_type_0::SimdSha256Hash2            0      0.00%     74.74% # Type of FU issued
system.switch_cpus1.iq.FU_type_0::SimdShaSigma2            0      0.00%     74.74% # Type of FU issued
system.switch_cpus1.iq.FU_type_0::SimdShaSigma3            0      0.00%     74.74% # Type of FU issued
system.switch_cpus1.iq.FU_type_0::SimdPredAlu            0      0.00%     74.74% # Type of FU issued
system.switch_cpus1.iq.FU_type_0::MemRead     29025228     20.02%     94.75% # Type of FU issued
system.switch_cpus1.iq.FU_type_0::MemWrite      7611445      5.25%    100.00% # Type of FU issued
system.switch_cpus1.iq.FU_type_0::FloatMemRead            0      0.00%    100.00% # Type of FU issued
[...]
system.switch_cpus3.commit.numCommittedDist::stdev     3.231584                       # Number of insts commited each cycle
system.switch_cpus3.commit.numCommittedDist::underflows            0      0.00%      0.00% # Number of insts commited each cycle
system.switch_cpus3.commit.numCommittedDist::0     18758584     16.86%     16.86% # Number of insts commited each cycle
system.switch_cpus3.commit.numCommittedDist::1     17231617     15.49%     32.34% # Number of insts commited each cycle
system.switch_cpus3.commit.numCommittedDist::2      5625942      5.06%     37.40% # Number of insts commited each cycle
system.switch_cpus3.commit.numCommittedDist::3     11948511     10.74%     48.14% # Number of insts commited each cycle
system.switch_cpus3.commit.numCommittedDist::4      3984607      3.58%     51.72% # Number of insts commited each cycle
system.switch_cpus3.commit.numCommittedDist::5      5930768      5.33%     57.05% # Number of insts commited each cycle
system.switch_cpus3.commit.numCommittedDist::6      4710868      4.23%     61.28% # Number of insts commited each cycle
system.switch_cpus3.commit.numCommittedDist::7      4544287      4.08%     65.37% # Number of insts commited each cycle
system.switch_cpus3.commit.numCommittedDist::8     38536764     34.63%    100.00% # Number of insts commited each cycle
system.switch_cpus3.commit.numCommittedDist::overflows            0      0.00%    100.00% # Number of insts commited each cycle
system.switch_cpus3.commit.numCommittedDist::min_value            0                       # Number of insts commited each cycle
system.switch_cpus3.commit.numCommittedDist::max_value            8                       # Number of insts commited each cycle
system.switch_cpus3.commit.numCommittedDist::total    111271948                       # Number of insts commited each cycle
system.switch_cpus3.commit.instsCommitted    250000003                       # Number of instructions committed
system.switch_cpus3.commit.opsCommitted     478290631                       # Number of ops (including micro ops) committed
system.switch_cpus3.commit.memRefs          124129154                       # Number of memory references committed
system.switch_cpus3.commit.loads             87057698                       # Number of loads committed
system.switch_cpus3.commit.amos                     0                       # Number of atomic instructions committed
system.switch_cpus3.commit.membars                  0                       # Number of memory barriers committed
system.switch_cpus3.commit.branches          45560206                       # Number of branches committed
system.switch_cpus3.commit.vector                   0                       # Number of committed Vector instructions.
system.switch_cpus3.commit.floating            114136                       # Number of committed floating point instructions.
system.switch_cpus3.commit.integer          475927609                       # Number of committed integer instructions.
system.switch_cpus3.commit.functionCalls       139734                       # Number of function calls committed.
system.switch_cpus3.commit.committedInstType_0::No_OpClass       975197      0.20%      0.20% # Class of committed instruction
system.switch_cpus3.commit.committedInstType_0::IntAlu    348981726     72.96%     73.17% # Class of committed instruction
system.switch_cpus3.commit.committedInstType_0::IntMult      3980939      0.83%     74.00% # Class of committed instruction
system.switch_cpus3.commit.committedInstType_0::IntDiv       223615      0.05%     74.05% # Class of committed instruction
system.switch_cpus3.commit.committedInstType_0::FloatAdd            0      0.00%     74.05% # Class of committed instruction
system.switch_cpus3.commit.committedInstType_0::FloatCmp            0      0.00%     74.05% # Class of committed instruction
system.switch_cpus3.commit.committedInstType_0::FloatCvt            0      0.00%     74.05% # Class of committed instruction
system.switch_cpus3.commit.committedInstType_0::FloatMult            0      0.00%     74.05% # Class of committed instruction
system.switch_cpus3.commit.committedInstType_0::FloatMultAcc            0      0.00%     74.05% # Class of committed instruction
system.switch_cpus3.commit.committedInstType_0::FloatDiv            0      0.00%     74.05% # Class of committed instruction
system.switch_cpus3.commit.committedInstType_0::FloatMisc            0      0.00%     74.05% # Class of committed instruction
system.switch_cpus3.commit.committedInstType_0::FloatSqrt            0      0.00%     74.05% # Class of committed instruction
system.switch_cpus3.commit.committedInstType_0::SimdAdd            0      0.00%     74.05% # Class of committed instruction
system.switch_cpus3.commit.committedInstType_0::SimdAddAcc            0      0.00%     74.05% # Class of committed instruction
system.switch_cpus3.commit.committedInstType_0::SimdAlu            0      0.00%     74.05% # Class of committed instruction
system.switch_cpus3.commit.committedInstType_0::SimdCmp            0      0.00%     74.05% # Class of committed instruction
system.switch_cpus3.commit.committedInstType_0::SimdCvt            0      0.00%     74.05% # Class of committed instruction
system.switch_cpus3.commit.committedInstType_0::SimdMisc            0      0.00%     74.05% # Class of committed instruction
system.switch_cpus3.commit.committedInstType_0::SimdMult            0      0.00%     74.05% # Class of committed instruction
system.switch_cpus3.commit.committedInstType_0::SimdMultAcc            0      0.00%     74.05% # Class of committed instruction
system.switch_cpus3.commit.committedInstType_0::SimdShift            0      0.00%     74.05% # Class of committed instruction
system.switch_cpus3.commit.committedInstType_0::SimdShiftAcc            0      0.00%     74.05% # Class of committed instruction
system.switch_cpus3.commit.committedInstType_0::SimdDiv            0      0.00%     74.05% # Class of committed instruction
system.switch_cpus3.commit.committedInstType_0::SimdSqrt            0      0.00%     74.05% # Class of committed instruction
system.switch_cpus3.commit.committedInstType_0::SimdFloatAdd            0      0.00%     74.05% # Class of committed instruction
system.switch_cpus3.commit.committedInstType_0::SimdFloatAlu            0      0.00%     74.05% # Class of committed instruction
system.switch_cpus3.commit.committedInstType_0::SimdFloatCmp            0      0.00%     74.05% # Class of committed instruction
system.switch_cpus3.commit.committedInstType_0::SimdFloatCvt            0      0.00%     74.05% # Class of committed instruction
system.switch_cpus3.commit.committedInstType_0::SimdFloatDiv            0      0.00%     74.05% # Class of committed instruction
system.switch_cpus3.commit.committedInstType_0::SimdFloatMisc            0      0.00%     74.05% # Class of committed instruction
system.switch_cpus3.commit.committedInstType_0::SimdFloatMult            0      0.00%     74.05% # Class of committed instruction
system.switch_cpus3.commit.committedInstType_0::SimdFloatMultAcc            0      0.00%     74.05% # Class of committed instruction
system.switch_cpus3.commit.committedInstType_0::SimdFloatSqrt            0      0.00%     74.05% # Class of committed instruction
system.switch_cpus3.commit.committedInstType_0::SimdReduceAdd            0      0.00%     74.05% # Class of committed instruction
system.switch_cpus3.commit.committedInstType_0::SimdReduceAlu            0      0.00%     74.05% # Class of committed instruction
system.switch_cpus3.commit.committedInstType_0::SimdReduceCmp            0      0.00%     74.05% # Class of committed instruction
system.switch_cpus3.commit.committedInstType_0::SimdFloatReduceAdd            0      0.00%     74.05% # Class of committed instruction
system.switch_cpus3.commit.committedInstType_0::SimdFloatReduceCmp            0      0.00%     74.05% # Class of committed instruction
system.switch_cpus3.commit.committedInstType_0::SimdAes            0      0.00%     74.05% # Class of committed instruction
system.switch_cpus3.commit.committedInstType_0::SimdAesMix            0      0.00%     74.05% # Class of committed instruction
system.switch_cpus3.commit.committedInstType_0::SimdSha1Hash            0      0.00%     74.05% # Class of committed instruction
system.switch_cpus3.commit.committedInstType_0::SimdSha1Hash2            0      0.00%     74.05% # Class of committed instruction
system.switch_cpus3.commit.committedInstType_0::SimdSha256Hash            0      0.00%     74.05% # Class of committed instruction
system.switch_cpus3.commit.committedInstType_0::SimdSha256Hash2            0      0.00%     74.05% # Class of committed instruction
system.switch_cpus3.commit.committedInstType_0::SimdShaSigma2            0      0.00%     74.05% # Class of committed instruction
system.switch_cpus3.commit.committedInstType_0::SimdShaSigma3            0      0.00%     74.05% # Class of committed instruction
system.switch_cpus3.commit.committedInstType_0::SimdPredAlu            0      0.00%     74.05% # Class of committed instruction
system.switch_cpus3.commit.committedInstType_0::MemRead     87000714     18.19%     92.24% # Class of committed instruction
system.switch_cpus3.commit.committedInstType_0::MemWrite     37014304      7.74%     99.98% # Class of committed instruction
system.switch_cpus3.commit.committedInstType_0::FloatMemRead        56984      0.01%     99.99% # Class of committed instruction
system.switch_cpus3.commit.committedInstType_0::FloatMemWrite        57152      0.01%    100.00% # Class of committed instruction
system.switch_cpus3.commit.committedInstType_0::IprAccess            0      0.00%    100.00% # Class of committed instruction
system.switch_cpus3.commit.committedInstType_0::InstPrefetch            0      0.00%    100.00% # Class of committed instruction
system.switch_cpus3.commit.committedInstType_0::total    478290631                       # Class of committed instruction
system.switch_cpus3.commit.commitEligibleSamples     38536764                       # number cycles where commit BW limit reached
system.switch_cpus3.decode.idleCycles         9677640                       # Number of cycles decode is idle
system.switch_cpus3.decode.blockedCycles     22180602                       # Number of cycles decode is blocked
system.switch_cpus3.decode.runCycles         84033498                       # Number of cycles decode is running
system.switch_cpus3.decode.unblockCycles      8457277                       # Number of cycles decode is unblocking
system.switch_cpus3.decode.squashCycles       1900306                       # Number of cycles decode is squashing
system.switch_cpus3.decode.branchResolved     34294595                       # Number of times decode resolved a  branch
system.switch_cpus3.decode.branchMispred       109352                       # Number of times decode detected a branch misprediction
system.switch_cpus3.decode.decodedInsts     622487565                       # Number of instructions handled by decode
system.switch_cpus3.decode.squashedInsts       444327                       # Number of squashed instructions handled by decode
system.switch_cpus3.dtb.rdAccesses          104584727                       # TLB accesses on read requests
system.switch_cpus3.dtb.wrAccesses           39860357                       # TLB accesses on write requests
system.switch_cpus3.dtb.rdMisses                   93                       # TLB misses on read requests
system.switch_cpus3.dtb.wrMisses                    3                       # TLB misses on write requests
system.switch_cpus3.dtb.walker.power_state.pwrStateResidencyTicks::UNDEFINED 13761384282225                       # Cumulative time (in ticks) in various power states
system.switch_cpus3.fetch.icacheStallCycles      2214922                       # Number of cycles fetch is stalled on an Icache miss
system.switch_cpus3.fetch.insts             338870694                       # Number of instructions fetch has processed
system.switch_cpus3.fetch.branches           61406258                       # Number of branches that fetch encountered
system.switch_cpus3.fetch.predictedBranches     36032445                       # Number of branches that fetch has predicted taken
system.switch_cpus3.fetch.cycles            122027266                       # Number of cycles fetch has run and was not squashing or blocked
system.switch_cpus3.fetch.squashCycles        4014284                       # Number of cycles fetch has spent squashing
system.switch_cpus3.fetch.cacheLines         45365128                       # Number of cache lines fetched
system.switch_cpus3.fetch.icacheSquashes        15144                       # Number of outstanding Icache misses that were squashed
system.switch_cpus3.fetch.nisnDist::samples    126249330                       # Number of instructions fetched each cycle (Total)
system.switch_cpus3.fetch.nisnDist::mean     5.142717                       # Number of instructions fetched each cycle (Total)
system.switch_cpus3.fetch.nisnDist::stdev     3.087197                       # Number of instructions fetched each cycle (Total)
system.switch_cpus3.fetch.nisnDist::underflows            0      0.00%      0.00% # Number of instructions fetched each cycle (Total)
system.switch_cpus3.fetch.nisnDist::0        17930517     14.20%     14.20% # Number of instructions fetched each cycle (Total)
system.switch_cpus3.fetch.nisnDist::1         8697836      6.89%     21.09% # Number of instructions fetched each cycle (Total)
system.switch_cpus3.fetch.nisnDist::2         4749023      3.76%     24.85% # Number of instructions fetched each cycle (Total)
system.switch_cpus3.fetch.nisnDist::3        10901006      8.63%     33.49% # Number of instructions fetched each cycle (Total)
system.switch_cpus3.fetch.nisnDist::4         6913843      5.48%     38.96% # Number of instructions fetched each cycle (Total)
system.switch_cpus3.fetch.nisnDist::5         7767475      6.15%     45.12% # Number of instructions fetched each cycle (Total)
system.switch_cpus3.fetch.nisnDist::6         6876558      5.45%     50.56% # Number of instructions fetched each cycle (Total)
system.switch_cpus3.fetch.nisnDist::7         8691050      6.88%     57.45% # Number of instructions fetched each cycle (Total)
system.switch_cpus3.fetch.nisnDist::8        53722022     42.55%    100.00% # Number of instructions fetched each cycle (Total)
system.switch_cpus3.fetch.nisnDist::overflows            0      0.00%    100.00% # Number of instructions fetched each cycle (Total)
system.switch_cpus3.fetch.nisnDist::min_value            0                       # Number of instructions fetched each cycle (Total)
system.switch_cpus3.fetch.nisnDist::max_value            8                       # Number of instructions fetched each cycle (Total)
system.switch_cpus3.fetch.nisnDist::total    126249330                       # Number of instructions fetched each cycle (Total)
system.switch_cpus3.fetch.branchRate         0.483049                       # Number of branch fetches per cycle
system.switch_cpus3.fetch.rate               2.665709                       # Number of inst fetches per cycle
system.switch_cpus3.itb.rdAccesses                  0                       # TLB accesses on read requests
system.switch_cpus3.itb.wrAccesses           45365128                       # TLB accesses on write requests
system.switch_cpus3.itb.rdMisses                    0                       # TLB misses on read requests
system.switch_cpus3.itb.wrMisses                   33                       # TLB misses on write requests
system.switch_cpus3.itb.walker.power_state.pwrStateResidencyTicks::UNDEFINED 13761384282225                       # Cumulative time (in ticks) in various power states
system.switch_cpus3.lsq0.forwLoads           11557323                       # Number of loads that had data forwarded from stores
system.switch_cpus3.lsq0.squashedLoads       25041347                       # Number of loads squashed
system.switch_cpus3.lsq0.ignoredResponses         3184                       # Number of memory responses ignored because the instruction is squashed
system.switch_cpus3.lsq0.memOrderViolation        46304                       # Number of memory ordering violations
system.switch_cpus3.lsq0.squashedStores       8065846                       # Number of stores squashed
system.switch_cpus3.lsq0.rescheduledLoads           30                       # Number of loads that were rescheduled
system.switch_cpus3.lsq0.blockedByCache             0                       # Number of times an access to memory failed due to the cache being blocked
system.switch_cpus3.power_state.pwrStateResidencyTicks::OFF  42331686273                       # Cumulative time (in ticks) in various power states
system.switch_cpus3.rename.squashCycles       1900306                       # Number of cycles rename is squashing
system.switch_cpus3.rename.idleCycles        13646115                       # Number of cycles rename is idle
system.switch_cpus3.rename.blockCycles       13125906                       # Number of cycles rename is blocking
system.switch_cpus3.rename.serializeStallCycles            0                       # count of cycles rename stalledfor serializing inst
system.switch_cpus3.rename.runCycles         88253565                       # Number of cycles rename is running
system.switch_cpus3.rename.unblockCycles      9323431                       # Number of cycles rename is unblocking
system.switch_cpus3.rename.renamedInsts     610825863                       # Number of instructions processed by rename
system.switch_cpus3.rename.ROBFullEvents        41357                       # Number of times rename has blocked due to ROB full
system.switch_cpus3.rename.IQFullEvents       2452456                       # Number of times rename has blocked due to IQ full
system.switch_cpus3.rename.LQFullEvents       5045417                       # Number of times rename has blocked due to LQ full
system.switch_cpus3.rename.SQFullEvents         59928                       # Number of times rename has blocked due to SQ full
system.switch_cpus3.rename.renamedOperands    788671806                       # Number of destination operands rename has renamed
system.switch_cpus3.rename.lookups         1499445808                       # Number of register rename lookups that rename has made
system.switch_cpus3.rename.intLookups       905490614                       # Number of integer rename lookups
system.switch_cpus3.rename.fpLookups            59272                       # Number of floating rename lookups
system.switch_cpus3.rename.committedMaps    616822722                       # Number of HB maps that are committed
system.switch_cpus3.rename.undoneMaps       171848921                       # Number of HB maps that are undone due to squashing
system.switch_cpus3.rename.serializing              0                       # count of serializing insts renamed
system.switch_cpus3.rename.tempSerializing            0                       # count of temporary serializing insts renamed
system.switch_cpus3.rename.skidInsts         29214604                       # count of insts added to the skid buffer
system.switch_cpus3.rob.reads               662722639                       # The number of ROB reads
system.switch_cpus3.rob.writes             1194985179                       # The number of ROB writes
system.switch_cpus3.thread0.numInsts        250000003                       # Number of Instructions committed
system.switch_cpus3.thread0.numOps          478290631                       # Number of Ops committed
system.switch_cpus3.thread0.numMemRefs              0                       # Number of Memory References
system.voltage_domain.voltage                       1                       # Voltage in Volts

---------- End Simulation Statistics   ----------
