Command line:
./runscript_pride.sh mix1 RFM5.BR2.4C 4 2017 --rh_defense --rh_mitigation=RFM --rh_rfm_per_trefi=5 --rh_rfm_blast_radius=2 --rh_rfm_maxacts_per_trefi=79
Global frequency set at 1000000000000 ticks per second
RFM details - rfm_act_threshold: 15, blast_radius: 2, delay_per_rfm: 175000 ps. sample_rate: 0.062500
RH Defense config: RFM, Bus Delay: 0, rfms_per_trefi: 5, rfm_act_threshold: 15, blast_radius: 2,rfm_delay_per_act: 45000 ps.
DRAM config: RowsPerBank: 65536, BanksPerRank: 32, RanksPerChannel: 1
warn: Sockets disabled, not accepting gdb connections
warn: CoherentXBar system.cpu0.mmucache.mmubus has no snooping ports attached!
warn: CoherentXBar system.cpu1.mmucache.mmubus has no snooping ports attached!
warn: CoherentXBar system.cpu2.mmucache.mmubus has no snooping ports attached!
warn: CoherentXBar system.cpu3.mmucache.mmubus has no snooping ports attached!
warn: Checkpoints for file descriptors currently do not work.
warn: Checkpoints for file descriptors currently do not work.
warn: Checkpoints for file descriptors currently do not work.
warn: Checkpoints for file descriptors currently do not work.
gem5 Simulator System.  http://gem5.org
gem5 is copyrighted software; use the --copyright option for details.

gem5 version 20.1.0.5
gem5 compiled Jul 12 2024 12:42:38
gem5 started Aug  1 2024 18:07:14
gem5 executing on a07dda8b130c, pid 250869
command line: /home/user/PrIDE/performance/gem5/build/X86/gem5.opt --outdir=/home/user/PrIDE/performance/gem5/stats/pride_multiprogram_16GBmem_250Mn.SPEC2017.C4/RFM5.BR2.4C/mix1 /home/user/PrIDE/performance/gem5/configs/example/se_rq_spec_config_multicore.py --redirects /lib64=/home/utils/gcc-6.2.0/lib64 --benchmark=mix1 --benchmark_stdout=/home/user/PrIDE/performance/gem5/stats/pride_multiprogram_16GBmem_250Mn.SPEC2017.C4/RFM5.BR2.4C/mix1/mix1.out --benchmark_stderr=/home/user/PrIDE/performance/gem5/stats/pride_multiprogram_16GBmem_250Mn.SPEC2017.C4/RFM5.BR2.4C/mix1/mix1.err --spec-version=2017 --rh_defense --rh_mitigation=RFM --rh_rfm_per_trefi=5 --rh_rfm_blast_radius=2 --rh_rfm_maxacts_per_trefi=79 --num-cpus=4 --mem-size=16GB --mem-type=DDR5_2400_32x4 --mem-ranks=1 --mem-channels=1 --checkpoint-dir=/home/user/PrIDE/performance/gem5/cpts-DDR5/multiprogram_16GBmem_25Bn.SPEC2017.C4/mix1-1-ref-x86 --checkpoint-restore=25000000000 --at-instruction --cpu-type DerivO3CPU --caches --l2cache --l1d_size=32kB --l1i_size=32kB --l2_size=256kB --l3_size=4MB --l1d_assoc=8 --l1i_assoc=8 --l2_assoc=16 --l3_assoc=16 --cpu-clock=3GHz --sys-clock=3GHz --maxinsts=250000000 --prog-interval=300Hz

info: Standard input is not a terminal, disabling listeners.
Benchmark- 0   leela
Selected benchmark
--> leela
CMD: ['/opt/spec2017/benchspec/CPU/541.leela_r/run/run_base_refrate_gem5_se-m64.0000/leela_r_base.gem5_se-m64', '/opt/spec2017/benchspec/CPU/541.leela_r/run/run_base_refrate_gem5_se-m64.0000/ref.sgf']
CWD: /opt/spec2017/benchspec/CPU/541.leela_r/run/run_base_refrate_gem5_se-m64.0000/
Process stdout file: /home/user/PrIDE/performance/gem5/stats/pride_multiprogram_16GBmem_250Mn.SPEC2017.C4/RFM5.BR2.4C/mix1/mix1.out_0
Process stderr file: /home/user/PrIDE/performance/gem5/stats/pride_multiprogram_16GBmem_250Mn.SPEC2017.C4/RFM5.BR2.4C/mix1/mix1.err_0
Benchmark- 1   exchange2
Selected benchmark
--> exchange2
CMD: ['/opt/spec2017/benchspec/CPU/548.exchange2_r/run/run_base_refrate_gem5_se-m64.0000/exchange2_r_base.gem5_se-m64', '6']
CWD: /opt/spec2017/benchspec/CPU/548.exchange2_r/run/run_base_refrate_gem5_se-m64.0000/
Process stdout file: /home/user/PrIDE/performance/gem5/stats/pride_multiprogram_16GBmem_250Mn.SPEC2017.C4/RFM5.BR2.4C/mix1/mix1.out_1
Process stderr file: /home/user/PrIDE/performance/gem5/stats/pride_multiprogram_16GBmem_250Mn.SPEC2017.C4/RFM5.BR2.4C/mix1/mix1.err_1
Benchmark- 2   bwaves
Selected benchmark
--> bwaves
CMD: ['/opt/spec2017/benchspec/CPU/503.bwaves_r/run/run_base_refrate_gem5_se-m64.0000/bwaves_r_base.gem5_se-m64', '/opt/spec2017/benchspec/CPU/503.bwaves_r/run/run_base_refrate_gem5_se-m64.0000/bwaves_1']
CWD: /opt/spec2017/benchspec/CPU/503.bwaves_r/run/run_base_refrate_gem5_se-m64.0000/
Process stdout file: /home/user/PrIDE/performance/gem5/stats/pride_multiprogram_16GBmem_250Mn.SPEC2017.C4/RFM5.BR2.4C/mix1/mix1.out_2
Process stderr file: /home/user/PrIDE/performance/gem5/stats/pride_multiprogram_16GBmem_250Mn.SPEC2017.C4/RFM5.BR2.4C/mix1/mix1.err_2
Benchmark- 3   roms
Selected benchmark
--> roms
CMD: ['/opt/spec2017/benchspec/CPU/554.roms_r/run/run_base_refrate_gem5_se-m64.0000/roms_r_base.gem5_se-m64']
CWD: /opt/spec2017/benchspec/CPU/554.roms_r/run/run_base_refrate_gem5_se-m64.0000/
Process stdout file: /home/user/PrIDE/performance/gem5/stats/pride_multiprogram_16GBmem_250Mn.SPEC2017.C4/RFM5.BR2.4C/mix1/mix1.out_3
Process stderr file: /home/user/PrIDE/performance/gem5/stats/pride_multiprogram_16GBmem_250Mn.SPEC2017.C4/RFM5.BR2.4C/mix1/mix1.err_3
Workload-0: 
['/opt/spec2017/benchspec/CPU/541.leela_r/run/run_base_refrate_gem5_se-m64.0000/leela_r_base.gem5_se-m64', '/opt/spec2017/benchspec/CPU/541.leela_r/run/run_base_refrate_gem5_se-m64.0000/ref.sgf']
Workload-1: 
['/opt/spec2017/benchspec/CPU/548.exchange2_r/run/run_base_refrate_gem5_se-m64.0000/exchange2_r_base.gem5_se-m64', '6']
Workload-2: 
['/opt/spec2017/benchspec/CPU/503.bwaves_r/run/run_base_refrate_gem5_se-m64.0000/bwaves_r_base.gem5_se-m64', '/opt/spec2017/benchspec/CPU/503.bwaves_r/run/run_base_refrate_gem5_se-m64.0000/bwaves_1']
Workload-3: 
['/opt/spec2017/benchspec/CPU/554.roms_r/run/run_base_refrate_gem5_se-m64.0000/roms_r_base.gem5_se-m64']
defense_enable:  True  detector:  MG  mitigation:  RFM  threshold:  800
mg_entries:  1700
rfm_maxacts_per_trefi:  79 rfm_per_trefi:  5 rfm_blast_radius:  2
Switch at curTick count:10000
warn: membus.master is deprecated. `master` is now called `mem_side_ports`
warn: No dot file generated. Please install pydot to generate the dot file and pdf.
info: Entering event queue @ 15651257118624.  Starting simulation...
info: Entering event queue @ 15651257128624.  Starting simulation...
warn: PowerState: Already in the requested power state, request ignored
Switched CPUS @ tick 15651257128624
switching cpus
**** REAL SIMULATION ****
info: Entering event queue @ 15651257129280.  Starting simulation...
15654590451957: Event_285: system.switch_cpus3 progress event, total committed:8666569, progress insts committed: 8666569, IPC: 00.86579
15654590451957: Event_284: system.switch_cpus2 progress event, total committed:39517729, progress insts committed: 39517729, IPC: 03.94782
15654590451957: Event_283: system.switch_cpus1 progress event, total committed:33081606, progress insts committed: 33081606, IPC: 03.30485
15654590451957: Event_282: system.switch_cpus0 progress event, total committed:18534946, progress insts committed: 18534946, IPC: 01.85164
15657923785290: Event_282: system.switch_cpus0 progress event, total committed:38462253, progress insts committed: 19927307, IPC: 01.99074
15657923785290: Event_283: system.switch_cpus1 progress event, total committed:66705960, progress insts committed: 33624354, IPC: 03.35907
15657923785290: Event_284: system.switch_cpus2 progress event, total committed:78965426, progress insts committed: 39447697, IPC: 03.94082
15657923785290: Event_285: system.switch_cpus3 progress event, total committed:17652456, progress insts committed: 8985887, IPC: 00.89769
15661257118623: Event_285: system.switch_cpus3 progress event, total committed:26863661, progress insts committed: 9211205, IPC: 0.920199
15661257118623: Event_284: system.switch_cpus2 progress event, total committed:119037089, progress insts committed: 40071663, IPC: 04.00316
15661257118623: Event_283: system.switch_cpus1 progress event, total committed:101463005, progress insts committed: 34757045, IPC: 03.47223
15661257118623: Event_282: system.switch_cpus0 progress event, total committed:58364380, progress insts committed: 19902127, IPC: 01.98822
15664590451956: Event_282: system.switch_cpus0 progress event, total committed:78132687, progress insts committed: 19768307, IPC: 01.97485
15664590451956: Event_283: system.switch_cpus1 progress event, total committed:137044777, progress insts committed: 35581772, IPC: 03.55462
15664590451956: Event_284: system.switch_cpus2 progress event, total committed:156474429, progress insts committed: 37437340, IPC: 03.73999
15664590451956: Event_285: system.switch_cpus3 progress event, total committed:37175013, progress insts committed: 10311352, IPC: 001.0301
15667923785289: Event_285: system.switch_cpus3 progress event, total committed:45771241, progress insts committed: 8596228, IPC: 0.858763
15667923785289: Event_284: system.switch_cpus2 progress event, total committed:184570449, progress insts committed: 28096020, IPC: 02.80679
15667923785289: Event_283: system.switch_cpus1 progress event, total committed:174346686, progress insts committed: 37301909, IPC: 03.72646
15667923785289: Event_282: system.switch_cpus0 progress event, total committed:97751328, progress insts committed: 19618641, IPC: 001.9599
15671257118622: Event_282: system.switch_cpus0 progress event, total committed:117532448, progress insts committed: 19781120, IPC: 01.97613
15671257118622: Event_283: system.switch_cpus1 progress event, total committed:210876063, progress insts committed: 36529377, IPC: 03.64928
15671257118622: Event_284: system.switch_cpus2 progress event, total committed:226057615, progress insts committed: 41487166, IPC: 04.14457
15671257118622: Event_285: system.switch_cpus3 progress event, total committed:55679953, progress insts committed: 9908712, IPC: 00.98988
15674590451955: Event_285: system.switch_cpus3 progress event, total committed:79846814, progress insts committed: 24166861, IPC: 02.41427
15674590451955: Event_284: system.switch_cpus2 progress event, total committed:265045255, progress insts committed: 38987640, IPC: 03.89487
15674590451955: Event_283: system.switch_cpus1 progress event, total committed:245401693, progress insts committed: 34525630, IPC: 03.44911
15674590451955: Event_282: system.switch_cpus0 progress event, total committed:137351865, progress insts committed: 19819417, IPC: 01.97996
15677923785288: Event_282: system.switch_cpus0 progress event, total committed:157334283, progress insts committed: 19982418, IPC: 01.99624
15677923785288: Event_283: system.switch_cpus1 progress event, total committed:281719181, progress insts committed: 36317488, IPC: 03.62812
15677923785288: Event_284: system.switch_cpus2 progress event, total committed:305426092, progress insts committed: 40380837, IPC: 04.03405
15677923785288: Event_285: system.switch_cpus3 progress event, total committed:105362742, progress insts committed: 25515928, IPC: 02.54904
15681257118621: Event_285: system.switch_cpus3 progress event, total committed:131544300, progress insts committed: 26181558, IPC: 02.61554
15681257118621: Event_284: system.switch_cpus2 progress event, total committed:345746797, progress insts committed: 40320705, IPC: 04.02804
15681257118621: Event_283: system.switch_cpus1 progress event, total committed:317708783, progress insts committed: 35989602, IPC: 03.59536
15681257118621: Event_282: system.switch_cpus0 progress event, total committed:177281324, progress insts committed: 19947041, IPC: 01.99271
15684590451954: Event_282: system.switch_cpus0 progress event, total committed:197328333, progress insts committed: 20047009, IPC: 002.0027
15684590451954: Event_283: system.switch_cpus1 progress event, total committed:352475213, progress insts committed: 34766430, IPC: 03.47317
15684590451954: Event_284: system.switch_cpus2 progress event, total committed:386169219, progress insts committed: 40422422, IPC: 004.0382
15684590451954: Event_285: system.switch_cpus3 progress event, total committed:158060792, progress insts committed: 26516492, IPC: 0002.649
15687923785287: Event_285: system.switch_cpus3 progress event, total committed:184560742, progress insts committed: 26499950, IPC: 02.64735
15687923785287: Event_284: system.switch_cpus2 progress event, total committed:425520250, progress insts committed: 39351031, IPC: 03.93117
15687923785287: Event_283: system.switch_cpus1 progress event, total committed:388780044, progress insts committed: 36304831, IPC: 03.62685
15687923785287: Event_282: system.switch_cpus0 progress event, total committed:217284565, progress insts committed: 19956232, IPC: 01.99363
15691257118620: Event_282: system.switch_cpus0 progress event, total committed:237202942, progress insts committed: 19918377, IPC: 01.98985
15691257118620: Event_283: system.switch_cpus1 progress event, total committed:424771985, progress insts committed: 35991941, IPC: 03.59559
15691257118620: Event_284: system.switch_cpus2 progress event, total committed:466231118, progress insts committed: 40710868, IPC: 04.06702
15691257118620: Event_285: system.switch_cpus3 progress event, total committed:211044302, progress insts committed: 26483560, IPC: 02.64571
Exiting @ tick 15691292984682 because a thread reached the max instruction count
