
---------- Begin Simulation Statistics ----------
final_tick                               15691194745020                       # Number of ticks from beginning of simulation (restored from checkpoints and never reset)
host_inst_rate                                 107837                       # Simulator instruction rate (inst/s)
host_mem_usage                               17332144                       # Number of bytes of host memory used
host_op_rate                                   200113                       # Simulator op (including micro ops) rate (op/s)
host_seconds                                  6689.42                       # Real time elapsed on the host
host_tick_rate                                5970269                       # Simulator tick rate (ticks/s)
sim_freq                                 1000000000000                       # Frequency of simulated ticks
sim_insts                                   721369954                       # Number of instructions simulated
sim_ops                                    1338639791                       # Number of ops (including micro ops) simulated
sim_seconds                                  0.039938                       # Number of seconds simulated
sim_ticks                                 39937667688                       # Number of ticks simulated
system.cpu0.Branches                                2                       # Number of branches fetched
system.cpu0.committedInsts                         14                       # Number of instructions committed
system.cpu0.committedOps                           24                       # Number of ops (including micro ops) committed
system.cpu0.idle_fraction                           0                       # Percentage of idle cycles
system.cpu0.l2bus.snoop_filter.hit_multi_requests           94                       # Number of requests hitting in the snoop filter with multiple (>1) holders of the requested data.
system.cpu0.l2bus.snoop_filter.hit_multi_snoops            0                       # Number of snoops hitting in the snoop filter with multiple (>1) holders of the requested data.
system.cpu0.l2bus.snoop_filter.hit_single_requests       482610                       # Number of requests hitting in the snoop filter with a single holder of the requested data.
system.cpu0.l2bus.snoop_filter.hit_single_snoops          490                       # Number of snoops hitting in the snoop filter with a single holder of the requested data.
system.cpu0.l2bus.snoop_filter.tot_requests       966089                       # Total number of requests made to the snoop filter.
system.cpu0.l2bus.snoop_filter.tot_snoops          490                       # Total number of snoops made to the snoop filter.
system.cpu0.mmucache.mmubus.snoop_filter.hit_multi_requests            0                       # Number of requests hitting in the snoop filter with multiple (>1) holders of the requested data.
system.cpu0.mmucache.mmubus.snoop_filter.hit_multi_snoops            0                       # Number of snoops hitting in the snoop filter with multiple (>1) holders of the requested data.
system.cpu0.mmucache.mmubus.snoop_filter.hit_single_requests            0                       # Number of requests hitting in the snoop filter with a single holder of the requested data.
system.cpu0.mmucache.mmubus.snoop_filter.hit_single_snoops            0                       # Number of snoops hitting in the snoop filter with a single holder of the requested data.
system.cpu0.mmucache.mmubus.snoop_filter.tot_requests            0                       # Total number of requests made to the snoop filter.
system.cpu0.mmucache.mmubus.snoop_filter.tot_snoops            0                       # Total number of snoops made to the snoop filter.
system.cpu0.not_idle_fraction                       1                       # Percentage of non-idle cycles
system.cpu0.numCycles                              30                       # number of cpu cycles simulated
system.cpu0.numWorkItemsCompleted                   0                       # number of work items this cpu completed
system.cpu0.numWorkItemsStarted                     0                       # number of work items this cpu started
system.cpu0.num_busy_cycles                        30                       # Number of busy cycles
system.cpu0.num_cc_register_reads                   9                       # number of times the CC registers were read
system.cpu0.num_cc_register_writes                 11                       # number of times the CC registers were written
system.cpu0.num_conditional_control_insts            1                       # number of instructions that are conditional controls
system.cpu0.num_fp_alu_accesses                     0                       # Number of float alu accesses
system.cpu0.num_fp_insts                            0                       # number of float instructions
system.cpu0.num_fp_register_reads                   0                       # number of times the floating registers were read
system.cpu0.num_fp_register_writes                  0                       # number of times the floating registers were written
system.cpu0.num_func_calls                          1                       # number of times a function call or return occured
system.cpu0.num_idle_cycles                         0                       # Number of idle cycles
system.cpu0.num_int_alu_accesses                   24                       # Number of integer alu accesses
system.cpu0.num_int_insts                          24                       # number of integer instructions
system.cpu0.num_int_register_reads                 49                       # number of times the integer registers were read
system.cpu0.num_int_register_writes                23                       # number of times the integer registers were written
system.cpu0.num_load_insts                          6                       # Number of load instructions
system.cpu0.num_mem_refs                            6                       # number of memory refs
system.cpu0.num_store_insts                         0                       # Number of store instructions
system.cpu0.num_vec_alu_accesses                    0                       # Number of vector alu accesses
system.cpu0.num_vec_insts                           0                       # number of vector instructions
system.cpu0.num_vec_register_reads                  0                       # number of times the vector registers were read
system.cpu0.num_vec_register_writes                 0                       # number of times the vector registers were written
system.cpu0.op_class::No_OpClass                    0      0.00%      0.00% # Class of executed instruction
system.cpu0.op_class::IntAlu                       17     70.83%     70.83% # Class of executed instruction
system.cpu0.op_class::IntMult                       1      4.17%     75.00% # Class of executed instruction
system.cpu0.op_class::IntDiv                        0      0.00%     75.00% # Class of executed instruction
system.cpu0.op_class::FloatAdd                      0      0.00%     75.00% # Class of executed instruction
system.cpu0.op_class::FloatCmp                      0      0.00%     75.00% # Class of executed instruction
system.cpu0.op_class::FloatCvt                      0      0.00%     75.00% # Class of executed instruction
system.cpu0.op_class::FloatMult                     0      0.00%     75.00% # Class of executed instruction
system.cpu0.op_class::FloatMultAcc                  0      0.00%     75.00% # Class of executed instruction
system.cpu0.op_class::FloatDiv                      0      0.00%     75.00% # Class of executed instruction
system.cpu0.op_class::FloatMisc                     0      0.00%     75.00% # Class of executed instruction
system.cpu0.op_class::FloatSqrt                     0      0.00%     75.00% # Class of executed instruction
system.cpu0.op_class::SimdAdd                       0      0.00%     75.00% # Class of executed instruction
system.cpu0.op_class::SimdAddAcc                    0      0.00%     75.00% # Class of executed instruction
system.cpu0.op_class::SimdAlu                       0      0.00%     75.00% # Class of executed instruction
system.cpu0.op_class::SimdCmp                       0      0.00%     75.00% # Class of executed instruction
system.cpu0.op_class::SimdCvt                       0      0.00%     75.00% # Class of executed instruction
system.cpu0.op_class::SimdMisc                      0      0.00%     75.00% # Class of executed instruction
system.cpu0.op_class::SimdMult                      0      0.00%     75.00% # Class of executed instruction
system.cpu0.op_class::SimdMultAcc                   0      0.00%     75.00% # Class of executed instruction
system.cpu0.op_class::SimdShift                     0      0.00%     75.00% # Class of executed instruction
system.cpu0.op_class::SimdShiftAcc                  0      0.00%     75.00% # Class of executed instruction
system.cpu0.op_class::SimdDiv                       0      0.00%     75.00% # Class of executed instruction
system.cpu0.op_class::SimdSqrt                      0      0.00%     75.00% # Class of executed instruction
system.cpu0.op_class::SimdFloatAdd                  0      0.00%     75.00% # Class of executed instruction
system.cpu0.op_class::SimdFloatAlu                  0      0.00%     75.00% # Class of executed instruction
system.cpu0.op_class::SimdFloatCmp                  0      0.00%     75.00% # Class of executed instruction
system.cpu0.op_class::SimdFloatCvt                  0      0.00%     75.00% # Class of executed instruction
system.cpu0.op_class::SimdFloatDiv                  0      0.00%     75.00% # Class of executed instruction
system.cpu0.op_class::SimdFloatMisc                 0      0.00%     75.00% # Class of executed instruction
system.cpu0.op_class::SimdFloatMult                 0      0.00%     75.00% # Class of executed instruction
system.cpu0.op_class::SimdFloatMultAcc              0      0.00%     75.00% # Class of executed instruction
system.cpu0.op_class::SimdFloatSqrt                 0      0.00%     75.00% # Class of executed instruction
system.cpu0.op_class::SimdReduceAdd                 0      0.00%     75.00% # Class of executed instruction
system.cpu0.op_class::SimdReduceAlu                 0      0.00%     75.00% # Class of executed instruction
system.cpu0.op_class::SimdReduceCmp                 0      0.00%     75.00% # Class of executed instruction
system.cpu0.op_class::SimdFloatReduceAdd            0      0.00%     75.00% # Class of executed instruction
system.cpu0.op_class::SimdFloatReduceCmp            0      0.00%     75.00% # Class of executed instruction
system.cpu0.op_class::SimdAes                       0      0.00%     75.00% # Class of executed instruction
system.cpu0.op_class::SimdAesMix                    0      0.00%     75.00% # Class of executed instruction
system.cpu0.op_class::SimdSha1Hash                  0      0.00%     75.00% # Class of executed instruction
system.cpu0.op_class::SimdSha1Hash2                 0      0.00%     75.00% # Class of executed instruction
system.cpu0.op_class::SimdSha256Hash                0      0.00%     75.00% # Class of executed instruction
system.cpu0.op_class::SimdSha256Hash2               0      0.00%     75.00% # Class of executed instruction
system.cpu0.op_class::SimdShaSigma2                 0      0.00%     75.00% # Class of executed instruction
system.cpu0.op_class::SimdShaSigma3                 0      0.00%     75.00% # Class of executed instruction
system.cpu0.op_class::SimdPredAlu                   0      0.00%     75.00% # Class of executed instruction
system.cpu0.op_class::MemRead                       6     25.00%    100.00% # Class of executed instruction
system.cpu0.op_class::MemWrite                      0      0.00%    100.00% # Class of executed instruction
system.cpu0.op_class::FloatMemRead                  0      0.00%    100.00% # Class of executed instruction
system.cpu0.op_class::FloatMemWrite                 0      0.00%    100.00% # Class of executed instruction
system.cpu0.op_class::IprAccess                     0      0.00%    100.00% # Class of executed instruction
system.cpu0.op_class::InstPrefetch                  0      0.00%    100.00% # Class of executed instruction
system.cpu0.op_class::total                        24                       # Class of executed instruction
system.cpu0.workload.numSyscalls                    0                       # Number of system calls
system.cpu1.Branches                                3                       # Number of branches fetched
system.cpu1.committedInsts                         12                       # Number of instructions committed
system.cpu1.committedOps                           27                       # Number of ops (including micro ops) committed
system.cpu1.idle_fraction                           0                       # Percentage of idle cycles
system.cpu1.l2bus.snoop_filter.hit_multi_requests            3                       # Number of requests hitting in the snoop filter with multiple (>1) holders of the requested data.
system.cpu1.l2bus.snoop_filter.hit_multi_snoops            0                       # Number of snoops hitting in the snoop filter with multiple (>1) holders of the requested data.
system.cpu1.l2bus.snoop_filter.hit_single_requests         6238                       # Number of requests hitting in the snoop filter with a single holder of the requested data.
system.cpu1.l2bus.snoop_filter.hit_single_snoops            0                       # Number of snoops hitting in the snoop filter with a single holder of the requested data.
system.cpu1.l2bus.snoop_filter.tot_requests        13288                       # Total number of requests made to the snoop filter.
system.cpu1.l2bus.snoop_filter.tot_snoops            0                       # Total number of snoops made to the snoop filter.
system.cpu1.mmucache.mmubus.snoop_filter.hit_multi_requests            0                       # Number of requests hitting in the snoop filter with multiple (>1) holders of the requested data.
system.cpu1.mmucache.mmubus.snoop_filter.hit_multi_snoops            0                       # Number of snoops hitting in the snoop filter with multiple (>1) holders of the requested data.
system.cpu1.mmucache.mmubus.snoop_filter.hit_single_requests            0                       # Number of requests hitting in the snoop filter with a single holder of the requested data.
system.cpu1.mmucache.mmubus.snoop_filter.hit_single_snoops            0                       # Number of snoops hitting in the snoop filter with a single holder of the requested data.
system.cpu1.mmucache.mmubus.snoop_filter.tot_requests            0                       # Total number of requests made to the snoop filter.
system.cpu1.mmucache.mmubus.snoop_filter.tot_snoops            0                       # Total number of snoops made to the snoop filter.
system.cpu1.not_idle_fraction                       1                       # Percentage of non-idle cycles
system.cpu1.numCycles                              30                       # number of cpu cycles simulated
system.cpu1.numWorkItemsCompleted                   0                       # number of work items this cpu completed
system.cpu1.numWorkItemsStarted                     0                       # number of work items this cpu started
system.cpu1.num_busy_cycles                        30                       # Number of busy cycles
system.cpu1.num_cc_register_reads                  11                       # number of times the CC registers were read
system.cpu1.num_cc_register_writes                 10                       # number of times the CC registers were written
system.cpu1.num_conditional_control_insts            2                       # number of instructions that are conditional controls
system.cpu1.num_fp_alu_accesses                     0                       # Number of float alu accesses
system.cpu1.num_fp_insts                            0                       # number of float instructions
system.cpu1.num_fp_register_reads                   0                       # number of times the floating registers were read
system.cpu1.num_fp_register_writes                  0                       # number of times the floating registers were written
system.cpu1.num_func_calls                          0                       # number of times a function call or return occured
system.cpu1.num_idle_cycles                         0                       # Number of idle cycles
system.cpu1.num_int_alu_accesses                   26                       # Number of integer alu accesses
system.cpu1.num_int_insts                          26                       # number of integer instructions
system.cpu1.num_int_register_reads                 44                       # number of times the integer registers were read
system.cpu1.num_int_register_writes                22                       # number of times the integer registers were written
system.cpu1.num_load_insts                          3                       # Number of load instructions
system.cpu1.num_mem_refs                            4                       # number of memory refs
system.cpu1.num_store_insts                         1                       # Number of store instructions
system.cpu1.num_vec_alu_accesses                    0                       # Number of vector alu accesses
system.cpu1.num_vec_insts                           0                       # number of vector instructions
system.cpu1.num_vec_register_reads                  0                       # number of times the vector registers were read
system.cpu1.num_vec_register_writes                 0                       # number of times the vector registers were written
system.cpu1.op_class::No_OpClass                    0      0.00%      0.00% # Class of executed instruction
system.cpu1.op_class::IntAlu                       23     85.19%     85.19% # Class of executed instruction
system.cpu1.op_class::IntMult                       0      0.00%     85.19% # Class of executed instruction
system.cpu1.op_class::IntDiv                        0      0.00%     85.19% # Class of executed instruction
system.cpu1.op_class::FloatAdd                      0      0.00%     85.19% # Class of executed instruction
system.cpu1.op_class::FloatCmp                      0      0.00%     85.19% # Class of executed instruction
system.cpu1.op_class::FloatCvt                      0      0.00%     85.19% # Class of executed instruction
system.cpu1.op_class::FloatMult                     0      0.00%     85.19% # Class of executed instruction
system.cpu1.op_class::FloatMultAcc                  0      0.00%     85.19% # Class of executed instruction
system.cpu1.op_class::FloatDiv                      0      0.00%     85.19% # Class of executed instruction
system.cpu1.op_class::FloatMisc                     0      0.00%     85.19% # Class of executed instruction
system.cpu1.op_class::FloatSqrt                     0      0.00%     85.19% # Class of executed instruction
system.cpu1.op_class::SimdAdd                       0      0.00%     85.19% # Class of executed instruction
system.cpu1.op_class::SimdAddAcc                    0      0.00%     85.19% # Class of executed instruction
system.cpu1.op_class::SimdAlu                       0      0.00%     85.19% # Class of executed instruction
system.cpu1.op_class::SimdCmp                       0      0.00%     85.19% # Class of executed instruction
system.cpu1.op_class::SimdCvt                       0      0.00%     85.19% # Class of executed instruction
system.cpu1.op_class::SimdMisc                      0      0.00%     85.19% # Class of executed instruction
system.cpu1.op_class::SimdMult                      0      0.00%     85.19% # Class of executed instruction
system.cpu1.op_class::SimdMultAcc                   0      0.00%     85.19% # Class of executed instruction
system.cpu1.op_class::SimdShift                     0      0.00%     85.19% # Class of executed instruction
system.cpu1.op_class::SimdShiftAcc                  0      0.00%     85.19% # Class of executed instruction
system.cpu1.op_class::SimdDiv                       0      0.00%     85.19% # Class of executed instruction
system.cpu1.op_class::SimdSqrt                      0      0.00%     85.19% # Class of executed instruction
system.cpu1.op_class::SimdFloatAdd                  0      0.00%     85.19% # Class of executed instruction
system.cpu1.op_class::SimdFloatAlu                  0      0.00%     85.19% # Class of executed instruction
system.cpu1.op_class::SimdFloatCmp                  0      0.00%     85.19% # Class of executed instruction
system.cpu1.op_class::SimdFloatCvt                  0      0.00%     85.19% # Class of executed instruction
system.cpu1.op_class::SimdFloatDiv                  0      0.00%     85.19% # Class of executed instruction
system.cpu1.op_class::SimdFloatMisc                 0      0.00%     85.19% # Class of executed instruction
system.cpu1.op_class::SimdFloatMult                 0      0.00%     85.19% # Class of executed instruction
system.cpu1.op_class::SimdFloatMultAcc              0      0.00%     85.19% # Class of executed instruction
system.cpu1.op_class::SimdFloatSqrt                 0      0.00%     85.19% # Class of executed instruction
system.cpu1.op_class::SimdReduceAdd                 0      0.00%     85.19% # Class of executed instruction
system.cpu1.op_class::SimdReduceAlu                 0      0.00%     85.19% # Class of executed instruction
system.cpu1.op_class::SimdReduceCmp                 0      0.00%     85.19% # Class of executed instruction
system.cpu1.op_class::SimdFloatReduceAdd            0      0.00%     85.19% # Class of executed instruction
system.cpu1.op_class::SimdFloatReduceCmp            0      0.00%     85.19% # Class of executed instruction
system.cpu1.op_class::SimdAes                       0      0.00%     85.19% # Class of executed instruction
system.cpu1.op_class::SimdAesMix                    0      0.00%     85.19% # Class of executed instruction
system.cpu1.op_class::SimdSha1Hash                  0      0.00%     85.19% # Class of executed instruction
system.cpu1.op_class::SimdSha1Hash2                 0      0.00%     85.19% # Class of executed instruction
system.cpu1.op_class::SimdSha256Hash                0      0.00%     85.19% # Class of executed instruction
system.cpu1.op_class::SimdSha256Hash2               0      0.00%     85.19% # Class of executed instruction
system.cpu1.op_class::SimdShaSigma2                 0      0.00%     85.19% # Class of executed instruction
system.cpu1.op_class::SimdShaSigma3                 0      0.00%     85.19% # Class of executed instruction
system.cpu1.op_class::SimdPredAlu                   0      0.00%     85.19% # Class of executed instruction
system.cpu1.op_class::MemRead                       3     11.11%     96.30% # Class of executed instruction
system.cpu1.op_class::MemWrite                      1      3.70%    100.00% # Class of executed instruction
system.cpu1.op_class::FloatMemRead                  0      0.00%    100.00% # Class of executed instruction
system.cpu1.op_class::FloatMemWrite                 0      0.00%    100.00% # Class of executed instruction
system.cpu1.op_class::IprAccess                     0      0.00%    100.00% # Class of executed instruction
system.cpu1.op_class::InstPrefetch                  0      0.00%    100.00% # Class of executed instruction
system.cpu1.op_class::total                        27                       # Class of executed instruction
system.cpu1.workload.numSyscalls                    0                       # Number of system calls
system.cpu2.Branches                                2                       # Number of branches fetched
system.cpu2.committedInsts                         16                       # Number of instructions committed
system.cpu2.committedOps                           28                       # Number of ops (including micro ops) committed
system.cpu2.idle_fraction                           0                       # Percentage of idle cycles
system.cpu2.l2bus.snoop_filter.hit_multi_requests            2                       # Number of requests hitting in the snoop filter with multiple (>1) holders of the requested data.
system.cpu2.l2bus.snoop_filter.hit_multi_snoops            0                       # Number of snoops hitting in the snoop filter with multiple (>1) holders of the requested data.
system.cpu2.l2bus.snoop_filter.hit_single_requests        40838                       # Number of requests hitting in the snoop filter with a single holder of the requested data.
system.cpu2.l2bus.snoop_filter.hit_single_snoops          555                       # Number of snoops hitting in the snoop filter with a single holder of the requested data.
system.cpu2.l2bus.snoop_filter.tot_requests        82463                       # Total number of requests made to the snoop filter.
system.cpu2.l2bus.snoop_filter.tot_snoops          555                       # Total number of snoops made to the snoop filter.
system.cpu2.mmucache.mmubus.snoop_filter.hit_multi_requests            0                       # Number of requests hitting in the snoop filter with multiple (>1) holders of the requested data.
system.cpu2.mmucache.mmubus.snoop_filter.hit_multi_snoops            0                       # Number of snoops hitting in the snoop filter with multiple (>1) holders of the requested data.
system.cpu2.mmucache.mmubus.snoop_filter.hit_single_requests            0                       # Number of requests hitting in the snoop filter with a single holder of the requested data.
system.cpu2.mmucache.mmubus.snoop_filter.hit_single_snoops            0                       # Number of snoops hitting in the snoop filter with a single holder of the requested data.
system.cpu2.mmucache.mmubus.snoop_filter.tot_requests            0                       # Total number of requests made to the snoop filter.
system.cpu2.mmucache.mmubus.snoop_filter.tot_snoops            0                       # Total number of snoops made to the snoop filter.
system.cpu2.not_idle_fraction                       1                       # Percentage of non-idle cycles
system.cpu2.numCycles                              31                       # number of cpu cycles simulated
system.cpu2.numWorkItemsCompleted                   0                       # number of work items this cpu completed
system.cpu2.numWorkItemsStarted                     0                       # number of work items this cpu started
system.cpu2.num_busy_cycles                        31                       # Number of busy cycles
system.cpu2.num_cc_register_reads                  10                       # number of times the CC registers were read
system.cpu2.num_cc_register_writes                 18                       # number of times the CC registers were written
system.cpu2.num_conditional_control_insts            2                       # number of instructions that are conditional controls
system.cpu2.num_fp_alu_accesses                     0                       # Number of float alu accesses
system.cpu2.num_fp_insts                            0                       # number of float instructions
system.cpu2.num_fp_register_reads                   0                       # number of times the floating registers were read
system.cpu2.num_fp_register_writes                  0                       # number of times the floating registers were written
system.cpu2.num_func_calls                          0                       # number of times a function call or return occured
system.cpu2.num_idle_cycles                         0                       # Number of idle cycles
system.cpu2.num_int_alu_accesses                   28                       # Number of integer alu accesses
system.cpu2.num_int_insts                          28                       # number of integer instructions
system.cpu2.num_int_register_reads                 54                       # number of times the integer registers were read
system.cpu2.num_int_register_writes                28                       # number of times the integer registers were written
system.cpu2.num_load_insts                          6                       # Number of load instructions
system.cpu2.num_mem_refs                            6                       # number of memory refs
system.cpu2.num_store_insts                         0                       # Number of store instructions
system.cpu2.num_vec_alu_accesses                    0                       # Number of vector alu accesses
system.cpu2.num_vec_insts                           0                       # number of vector instructions
system.cpu2.num_vec_register_reads                  0                       # number of times the vector registers were read
system.cpu2.num_vec_register_writes                 0                       # number of times the vector registers were written
system.cpu2.op_class::No_OpClass                    0      0.00%      0.00% # Class of executed instruction
system.cpu2.op_class::IntAlu                       20     71.43%     71.43% # Class of executed instruction
system.cpu2.op_class::IntMult                       2      7.14%     78.57% # Class of executed instruction
system.cpu2.op_class::IntDiv                        0      0.00%     78.57% # Class of executed instruction
system.cpu2.op_class::FloatAdd                      0      0.00%     78.57% # Class of executed instruction
system.cpu2.op_class::FloatCmp                      0      0.00%     78.57% # Class of executed instruction
system.cpu2.op_class::FloatCvt                      0      0.00%     78.57% # Class of executed instruction
system.cpu2.op_class::FloatMult                     0      0.00%     78.57% # Class of executed instruction
system.cpu2.op_class::FloatMultAcc                  0      0.00%     78.57% # Class of executed instruction
system.cpu2.op_class::FloatDiv                      0      0.00%     78.57% # Class of executed instruction
system.cpu2.op_class::FloatMisc                     0      0.00%     78.57% # Class of executed instruction
system.cpu2.op_class::FloatSqrt                     0      0.00%     78.57% # Class of executed instruction
system.cpu2.op_class::SimdAdd                       0      0.00%     78.57% # Class of executed instruction
system.cpu2.op_class::SimdAddAcc                    0      0.00%     78.57% # Class of executed instruction
system.cpu2.op_class::SimdAlu                       0      0.00%     78.57% # Class of executed instruction
system.cpu2.op_class::SimdCmp                       0      0.00%     78.57% # Class of executed instruction
system.cpu2.op_class::SimdCvt                       0      0.00%     78.57% # Class of executed instruction
system.cpu2.op_class::SimdMisc                      0      0.00%     78.57% # Class of executed instruction
system.cpu2.op_class::SimdMult                      0      0.00%     78.57% # Class of executed instruction
system.cpu2.op_class::SimdMultAcc                   0      0.00%     78.57% # Class of executed instruction
system.cpu2.op_class::SimdShift                     0      0.00%     78.57% # Class of executed instruction
system.cpu2.op_class::SimdShiftAcc                  0      0.00%     78.57% # Class of executed instruction
system.cpu2.op_class::SimdDiv                       0      0.00%     78.57% # Class of executed instruction
system.cpu2.op_class::SimdSqrt                      0      0.00%     78.57% # Class of executed instruction
system.cpu2.op_class::SimdFloatAdd                  0      0.00%     78.57% # Class of executed instruction
system.cpu2.op_class::SimdFloatAlu                  0      0.00%     78.57% # Class of executed instruction
system.cpu2.op_class::SimdFloatCmp                  0      0.00%     78.57% # Class of executed instruction
system.cpu2.op_class::SimdFloatCvt                  0      0.00%     78.57% # Class of executed instruction
system.cpu2.op_class::SimdFloatDiv                  0      0.00%     78.57% # Class of executed instruction
system.cpu2.op_class::SimdFloatMisc                 0      0.00%     78.57% # Class of executed instruction
system.cpu2.op_class::SimdFloatMult                 0      0.00%     78.57% # Class of executed instruction
system.cpu2.op_class::SimdFloatMultAcc              0      0.00%     78.57% # Class of executed instruction
system.cpu2.op_class::SimdFloatSqrt                 0      0.00%     78.57% # Class of executed instruction
system.cpu2.op_class::SimdReduceAdd                 0      0.00%     78.57% # Class of executed instruction
system.cpu2.op_class::SimdReduceAlu                 0      0.00%     78.57% # Class of executed instruction
system.cpu2.op_class::SimdReduceCmp                 0      0.00%     78.57% # Class of executed instruction
system.cpu2.op_class::SimdFloatReduceAdd            0      0.00%     78.57% # Class of executed instruction
system.cpu2.op_class::SimdFloatReduceCmp            0      0.00%     78.57% # Class of executed instruction
system.cpu2.op_class::SimdAes                       0      0.00%     78.57% # Class of executed instruction
system.cpu2.op_class::SimdAesMix                    0      0.00%     78.57% # Class of executed instruction
system.cpu2.op_class::SimdSha1Hash                  0      0.00%     78.57% # Class of executed instruction
system.cpu2.op_class::SimdSha1Hash2                 0      0.00%     78.57% # Class of executed instruction
system.cpu2.op_class::SimdSha256Hash                0      0.00%     78.57% # Class of executed instruction
system.cpu2.op_class::SimdSha256Hash2               0      0.00%     78.57% # Class of executed instruction
system.cpu2.op_class::SimdShaSigma2                 0      0.00%     78.57% # Class of executed instruction
system.cpu2.op_class::SimdShaSigma3                 0      0.00%     78.57% # Class of executed instruction
system.cpu2.op_class::SimdPredAlu                   0      0.00%     78.57% # Class of executed instruction
system.cpu2.op_class::MemRead                       6     21.43%    100.00% # Class of executed instruction
system.cpu2.op_class::MemWrite                      0      0.00%    100.00% # Class of executed instruction
system.cpu2.op_class::FloatMemRead                  0      0.00%    100.00% # Class of executed instruction
system.cpu2.op_class::FloatMemWrite                 0      0.00%    100.00% # Class of executed instruction
system.cpu2.op_class::IprAccess                     0      0.00%    100.00% # Class of executed instruction
system.cpu2.op_class::InstPrefetch                  0      0.00%    100.00% # Class of executed instruction
system.cpu2.op_class::total                        28                       # Class of executed instruction
system.cpu2.workload.numSyscalls                    0                       # Number of system calls
system.cpu3.Branches                                1                       # Number of branches fetched
system.cpu3.committedInsts                         14                       # Number of instructions committed
system.cpu3.committedOps                           23                       # Number of ops (including micro ops) committed
system.cpu3.idle_fraction                           0                       # Percentage of idle cycles
system.cpu3.l2bus.snoop_filter.hit_multi_requests            3                       # Number of requests hitting in the snoop filter with multiple (>1) holders of the requested data.
system.cpu3.l2bus.snoop_filter.hit_multi_snoops            0                       # Number of snoops hitting in the snoop filter with multiple (>1) holders of the requested data.
system.cpu3.l2bus.snoop_filter.hit_single_requests      1693722                       # Number of requests hitting in the snoop filter with a single holder of the requested data.
system.cpu3.l2bus.snoop_filter.hit_single_snoops         3056                       # Number of snoops hitting in the snoop filter with a single holder of the requested data.
system.cpu3.l2bus.snoop_filter.tot_requests      3304154                       # Total number of requests made to the snoop filter.
system.cpu3.l2bus.snoop_filter.tot_snoops         3056                       # Total number of snoops made to the snoop filter.
system.cpu3.mmucache.mmubus.snoop_filter.hit_multi_requests            0                       # Number of requests hitting in the snoop filter with multiple (>1) holders of the requested data.
system.cpu3.mmucache.mmubus.snoop_filter.hit_multi_snoops            0                       # Number of snoops hitting in the snoop filter with multiple (>1) holders of the requested data.
system.cpu3.mmucache.mmubus.snoop_filter.hit_single_requests            0                       # Number of requests hitting in the snoop filter with a single holder of the requested data.
system.cpu3.mmucache.mmubus.snoop_filter.hit_single_snoops            0                       # Number of snoops hitting in the snoop filter with a single holder of the requested data.
system.cpu3.mmucache.mmubus.snoop_filter.tot_requests            0                       # Total number of requests made to the snoop filter.
system.cpu3.mmucache.mmubus.snoop_filter.tot_snoops            0                       # Total number of snoops made to the snoop filter.
system.cpu3.not_idle_fraction                       1                       # Percentage of non-idle cycles
system.cpu3.numCycles                              30                       # number of cpu cycles simulated
system.cpu3.numWorkItemsCompleted                   0                       # number of work items this cpu completed
system.cpu3.numWorkItemsStarted                     0                       # number of work items this cpu started
system.cpu3.num_busy_cycles                        30                       # Number of busy cycles
system.cpu3.num_cc_register_reads                   5                       # number of times the CC registers were read
system.cpu3.num_cc_register_writes                  8                       # number of times the CC registers were written
system.cpu3.num_conditional_control_insts            1                       # number of instructions that are conditional controls
system.cpu3.num_fp_alu_accesses                    12                       # Number of float alu accesses
system.cpu3.num_fp_insts                           12                       # number of float instructions
system.cpu3.num_fp_register_reads                  21                       # number of times the floating registers were read
system.cpu3.num_fp_register_writes                 11                       # number of times the floating registers were written
system.cpu3.num_func_calls                          0                       # number of times a function call or return occured
system.cpu3.num_idle_cycles                         0                       # Number of idle cycles
system.cpu3.num_int_alu_accesses                   16                       # Number of integer alu accesses
system.cpu3.num_int_insts                          16                       # number of integer instructions
system.cpu3.num_int_register_reads                 33                       # number of times the integer registers were read
system.cpu3.num_int_register_writes                10                       # number of times the integer registers were written
system.cpu3.num_load_insts                          6                       # Number of load instructions
system.cpu3.num_mem_refs                            7                       # number of memory refs
system.cpu3.num_store_insts                         1                       # Number of store instructions
system.cpu3.num_vec_alu_accesses                    0                       # Number of vector alu accesses
system.cpu3.num_vec_insts                           0                       # number of vector instructions
system.cpu3.num_vec_register_reads                  0                       # number of times the vector registers were read
system.cpu3.num_vec_register_writes                 0                       # number of times the vector registers were written
system.cpu3.op_class::No_OpClass                    0      0.00%      0.00% # Class of executed instruction
system.cpu3.op_class::IntAlu                       10     43.48%     43.48% # Class of executed instruction
system.cpu3.op_class::IntMult                       0      0.00%     43.48% # Class of executed instruction
system.cpu3.op_class::IntDiv                        0      0.00%     43.48% # Class of executed instruction
system.cpu3.op_class::FloatAdd                      0      0.00%     43.48% # Class of executed instruction
system.cpu3.op_class::FloatCmp                      0      0.00%     43.48% # Class of executed instruction
system.cpu3.op_class::FloatCvt                      0      0.00%     43.48% # Class of executed instruction
system.cpu3.op_class::FloatMult                     0      0.00%     43.48% # Class of executed instruction
system.cpu3.op_class::FloatMultAcc                  0      0.00%     43.48% # Class of executed instruction
system.cpu3.op_class::FloatDiv                      0      0.00%     43.48% # Class of executed instruction
system.cpu3.op_class::FloatMisc                     0      0.00%     43.48% # Class of executed instruction
system.cpu3.op_class::FloatSqrt                     0      0.00%     43.48% # Class of executed instruction
system.cpu3.op_class::SimdAdd                       0      0.00%     43.48% # Class of executed instruction
system.cpu3.op_class::SimdAddAcc                    0      0.00%     43.48% # Class of executed instruction
system.cpu3.op_class::SimdAlu                       0      0.00%     43.48% # Class of executed instruction
system.cpu3.op_class::SimdCmp                       0      0.00%     43.48% # Class of executed instruction
system.cpu3.op_class::SimdCvt                       0      0.00%     43.48% # Class of executed instruction
system.cpu3.op_class::SimdMisc                      0      0.00%     43.48% # Class of executed instruction
system.cpu3.op_class::SimdMult                      0      0.00%     43.48% # Class of executed instruction
system.cpu3.op_class::SimdMultAcc                   0      0.00%     43.48% # Class of executed instruction
system.cpu3.op_class::SimdShift                     0      0.00%     43.48% # Class of executed instruction
system.cpu3.op_class::SimdShiftAcc                  0      0.00%     43.48% # Class of executed instruction
system.cpu3.op_class::SimdDiv                       0      0.00%     43.48% # Class of executed instruction
system.cpu3.op_class::SimdSqrt                      0      0.00%     43.48% # Class of executed instruction
system.cpu3.op_class::SimdFloatAdd                  4     17.39%     60.87% # Class of executed instruction
system.cpu3.op_class::SimdFloatAlu                  0      0.00%     60.87% # Class of executed instruction
system.cpu3.op_class::SimdFloatCmp                  0      0.00%     60.87% # Class of executed instruction
system.cpu3.op_class::SimdFloatCvt                  0      0.00%     60.87% # Class of executed instruction
system.cpu3.op_class::SimdFloatDiv                  0      0.00%     60.87% # Class of executed instruction
system.cpu3.op_class::SimdFloatMisc                 0      0.00%     60.87% # Class of executed instruction
system.cpu3.op_class::SimdFloatMult                 2      8.70%     69.57% # Class of executed instruction
system.cpu3.op_class::SimdFloatMultAcc              0      0.00%     69.57% # Class of executed instruction
system.cpu3.op_class::SimdFloatSqrt                 0      0.00%     69.57% # Class of executed instruction
system.cpu3.op_class::SimdReduceAdd                 0      0.00%     69.57% # Class of executed instruction
system.cpu3.op_class::SimdReduceAlu                 0      0.00%     69.57% # Class of executed instruction
system.cpu3.op_class::SimdReduceCmp                 0      0.00%     69.57% # Class of executed instruction
system.cpu3.op_class::SimdFloatReduceAdd            0      0.00%     69.57% # Class of executed instruction
system.cpu3.op_class::SimdFloatReduceCmp            0      0.00%     69.57% # Class of executed instruction
system.cpu3.op_class::SimdAes                       0      0.00%     69.57% # Class of executed instruction
system.cpu3.op_class::SimdAesMix                    0      0.00%     69.57% # Class of executed instruction
system.cpu3.op_class::SimdSha1Hash                  0      0.00%     69.57% # Class of executed instruction
system.cpu3.op_class::SimdSha1Hash2                 0      0.00%     69.57% # Class of executed instruction
system.cpu3.op_class::SimdSha256Hash                0      0.00%     69.57% # Class of executed instruction
system.cpu3.op_class::SimdSha256Hash2               0      0.00%     69.57% # Class of executed instruction
system.cpu3.op_class::SimdShaSigma2                 0      0.00%     69.57% # Class of executed instruction
system.cpu3.op_class::SimdShaSigma3                 0      0.00%     69.57% # Class of executed instruction
system.cpu3.op_class::SimdPredAlu                   0      0.00%     69.57% # Class of executed instruction
system.cpu3.op_class::MemRead                       2      8.70%     78.26% # Class of executed instruction
system.cpu3.op_class::MemWrite                      0      0.00%     78.26% # Class of executed instruction
system.cpu3.op_class::FloatMemRead                  4     17.39%     95.65% # Class of executed instruction
system.cpu3.op_class::FloatMemWrite                 1      4.35%    100.00% # Class of executed instruction
system.cpu3.op_class::IprAccess                     0      0.00%    100.00% # Class of executed instruction
system.cpu3.op_class::InstPrefetch                  0      0.00%    100.00% # Class of executed instruction
system.cpu3.op_class::total                        23                       # Class of executed instruction
system.cpu3.workload.numSyscalls                    0                       # Number of system calls
system.l3bus.snoop_filter.hit_multi_requests            0                       # Number of requests hitting in the snoop filter with multiple (>1) holders of the requested data.
system.l3bus.snoop_filter.hit_multi_snoops            0                       # Number of snoops hitting in the snoop filter with multiple (>1) holders of the requested data.
system.l3bus.snoop_filter.hit_single_requests      1273321                       # Number of requests hitting in the snoop filter with a single holder of the requested data.
system.l3bus.snoop_filter.hit_single_snoops            0                       # Number of snoops hitting in the snoop filter with a single holder of the requested data.
system.l3bus.snoop_filter.tot_requests        2561280                       # Total number of requests made to the snoop filter.
system.l3bus.snoop_filter.tot_snoops                0                       # Total number of snoops made to the snoop filter.
system.membus.snoop_filter.hit_multi_requests            0                       # Number of requests hitting in the snoop filter with multiple (>1) holders of the requested data.
system.membus.snoop_filter.hit_multi_snoops            0                       # Number of snoops hitting in the snoop filter with multiple (>1) holders of the requested data.
system.membus.snoop_filter.hit_single_requests       598862                       # Number of requests hitting in the snoop filter with a single holder of the requested data.
system.membus.snoop_filter.hit_single_snoops            0                       # Number of snoops hitting in the snoop filter with a single holder of the requested data.
system.membus.snoop_filter.tot_requests       1275689                       # Total number of requests made to the snoop filter.
system.membus.snoop_filter.tot_snoops               0                       # Total number of snoops made to the snoop filter.
system.switch_cpus0.cc_regfile_reads        167711933                       # number of cc regfile reads
system.switch_cpus0.cc_regfile_writes       113907479                       # number of cc regfile writes
system.switch_cpus0.committedInsts          126758928                       # Number of Instructions Simulated
system.switch_cpus0.committedOps            236737343                       # Number of Ops (including micro ops) Simulated
system.switch_cpus0.cpi                      0.946150                       # CPI: Cycles Per Instruction
system.switch_cpus0.cpi_total                0.946150                       # CPI: Total CPI of All Threads
system.switch_cpus0.fp_regfile_reads           854031                       # number of floating regfile reads
system.switch_cpus0.fp_regfile_writes          651200                       # number of floating regfile writes
system.switch_cpus0.idleCycles                  86176                       # Total number of cycles that the CPU has spent unscheduled due to idling
system.switch_cpus0.iew.branchMispredicts      2905702                       # Number of branch mispredicts detected at execute
system.switch_cpus0.iew.exec_branches        30505817                       # Number of branches executed
system.switch_cpus0.iew.exec_nop                    0                       # number of nop insts executed
system.switch_cpus0.iew.exec_rate            2.759773                       # Inst execution rate
system.switch_cpus0.iew.exec_refs            66127079                       # number of memory reference insts executed
system.switch_cpus0.iew.exec_stores          16315024                       # Number of stores executed
system.switch_cpus0.iew.exec_swp                    0                       # number of swp insts executed
system.switch_cpus0.iew.iewBlockCycles       20458448                       # Number of cycles IEW is blocking
system.switch_cpus0.iew.iewDispLoadInsts     61617740                       # Number of dispatched load instructions
system.switch_cpus0.iew.iewDispNonSpecInsts            3                       # Number of dispatched non-speculative instructions
system.switch_cpus0.iew.iewDispSquashedInsts        77177                       # Number of squashed instructions skipped by dispatch
system.switch_cpus0.iew.iewDispStoreInsts     20072224                       # Number of dispatched store instructions
system.switch_cpus0.iew.iewDispatchedInsts    402502348                       # Number of instructions dispatched to IQ
system.switch_cpus0.iew.iewExecLoadInsts     49812055                       # Number of load instructions executed
system.switch_cpus0.iew.iewExecSquashedInsts      5479931                       # Number of squashed instructions skipped in execute
system.switch_cpus0.iew.iewExecutedInsts    330987596                       # Number of executed instructions
system.switch_cpus0.iew.iewIQFullEvents          6512                       # Number of times the IQ has become full, causing a stall
system.switch_cpus0.iew.iewIdleCycles               0                       # Number of cycles IEW is idle
system.switch_cpus0.iew.iewLSQFullEvents        19905                       # Number of times the LSQ has become full, causing a stall
system.switch_cpus0.iew.iewSquashCycles       2576012                       # Number of cycles IEW is squashing
system.switch_cpus0.iew.iewUnblockCycles        27879                       # Number of cycles IEW is unblocking
system.switch_cpus0.iew.memOrderViolationEvents        19614                       # Number of memory order violations
system.switch_cpus0.iew.predictedNotTakenIncorrect      1606489                       # Number of branches that were predicted not taken incorrectly
system.switch_cpus0.iew.predictedTakenIncorrect      1299213                       # Number of branches that were predicted taken incorrectly
system.switch_cpus0.iew.wb_consumers        457624155                       # num instructions consuming a value
system.switch_cpus0.iew.wb_count            328627108                       # cumulative count of insts written-back
system.switch_cpus0.iew.wb_fanout            0.559784                       # average fanout of values written-back
system.switch_cpus0.iew.wb_producers        256170632                       # num instructions producing a value
system.switch_cpus0.iew.wb_rate              2.740091                       # insts written-back per cycle
system.switch_cpus0.iew.wb_sent             330367453                       # cumulative count of insts sent to commit
system.switch_cpus0.int_regfile_reads       512821421                       # number of integer regfile reads
system.switch_cpus0.int_regfile_writes      293581860                       # number of integer regfile writes
system.switch_cpus0.ipc                      1.056915                       # IPC: Instructions Per Cycle
system.switch_cpus0.ipc_total                1.056915                       # IPC: Total IPC of All Threads
system.switch_cpus0.iq.FU_type_0::No_OpClass      1789319      0.53%      0.53% # Type of FU issued
system.switch_cpus0.iq.FU_type_0::IntAlu    259629675     77.16%     77.70% # Type of FU issued
system.switch_cpus0.iq.FU_type_0::IntMult      1639758      0.49%     78.18% # Type of FU issued
system.switch_cpus0.iq.FU_type_0::IntDiv      4725734      1.40%     79.59% # Type of FU issued
system.switch_cpus0.iq.FU_type_0::FloatAdd        28368      0.01%     79.60% # Type of FU issued
system.switch_cpus0.iq.FU_type_0::FloatCmp            0      0.00%     79.60% # Type of FU issued
system.switch_cpus0.iq.FU_type_0::FloatCvt            0      0.00%     79.60% # Type of FU issued
system.switch_cpus0.iq.FU_type_0::FloatMult            0      0.00%     79.60% # Type of FU issued
system.switch_cpus0.iq.FU_type_0::FloatMultAcc            0      0.00%     79.60% # Type of FU issued
system.switch_cpus0.iq.FU_type_0::FloatDiv            0      0.00%     79.60% # Type of FU issued
system.switch_cpus0.iq.FU_type_0::FloatMisc            0      0.00%     79.60% # Type of FU issued
system.switch_cpus0.iq.FU_type_0::FloatSqrt            0      0.00%     79.60% # Type of FU issued
system.switch_cpus0.iq.FU_type_0::SimdAdd            0      0.00%     79.60% # Type of FU issued
system.switch_cpus0.iq.FU_type_0::SimdAddAcc            0      0.00%     79.60% # Type of FU issued
system.switch_cpus0.iq.FU_type_0::SimdAlu        26894      0.01%     79.60% # Type of FU issued
system.switch_cpus0.iq.FU_type_0::SimdCmp            0      0.00%     79.60% # Type of FU issued
system.switch_cpus0.iq.FU_type_0::SimdCvt            0      0.00%     79.60% # Type of FU issued
system.switch_cpus0.iq.FU_type_0::SimdMisc        59038      0.02%     79.62% # Type of FU issued
system.switch_cpus0.iq.FU_type_0::SimdMult            0      0.00%     79.62% # Type of FU issued
system.switch_cpus0.iq.FU_type_0::SimdMultAcc            0      0.00%     79.62% # Type of FU issued
system.switch_cpus0.iq.FU_type_0::SimdShift            0      0.00%     79.62% # Type of FU issued
system.switch_cpus0.iq.FU_type_0::SimdShiftAcc            0      0.00%     79.62% # Type of FU issued
system.switch_cpus0.iq.FU_type_0::SimdDiv            0      0.00%     79.62% # Type of FU issued
system.switch_cpus0.iq.FU_type_0::SimdSqrt            0      0.00%     79.62% # Type of FU issued
system.switch_cpus0.iq.FU_type_0::SimdFloatAdd        56111      0.02%     79.64% # Type of FU issued
system.switch_cpus0.iq.FU_type_0::SimdFloatAlu            0      0.00%     79.64% # Type of FU issued
system.switch_cpus0.iq.FU_type_0::SimdFloatCmp            0      0.00%     79.64% # Type of FU issued
system.switch_cpus0.iq.FU_type_0::SimdFloatCvt       125507      0.04%     79.67% # Type of FU issued
system.switch_cpus0.iq.FU_type_0::SimdFloatDiv         1472      0.00%     79.68% # Type of FU issued
system.switch_cpus0.iq.FU_type_0::SimdFloatMisc            0      0.00%     79.68% # Type of FU issued
system.switch_cpus0.iq.FU_type_0::SimdFloatMult            0      0.00%     79.68% # Type of FU issued
system.switch_cpus0.iq.FU_type_0::SimdFloatMultAcc            0      0.00%     79.68% # Type of FU issued
system.switch_cpus0.iq.FU_type_0::SimdFloatSqrt            0      0.00%     79.68% # Type of FU issued
system.switch_cpus0.iq.FU_type_0::SimdReduceAdd            0      0.00%     79.68% # Type of FU issued
system.switch_cpus0.iq.FU_type_0::SimdReduceAlu            0      0.00%     79.68% # Type of FU issued
system.switch_cpus0.iq.FU_type_0::SimdReduceCmp            0      0.00%     79.68% # Type of FU issued
system.switch_cpus0.iq.FU_type_0::SimdFloatReduceAdd            0      0.00%     79.68% # Type of FU issued
system.switch_cpus0.iq.FU_type_0::SimdFloatReduceCmp            0      0.00%     79.68% # Type of FU issued
system.switch_cpus0.iq.FU_type_0::SimdAes            0      0.00%     79.68% # Type of FU issued
system.switch_cpus0.iq.FU_type_0::SimdAesMix            0      0.00%     79.68% # Type of FU issued
system.switch_cpus0.iq.FU_type_0::SimdSha1Hash            0      0.00%     79.68% # Type of FU issued
system.switch_cpus0.iq.FU_type_0::SimdSha1Hash2            0      0.00%     79.68% # Type of FU issued
system.switch_cpus0.iq.FU_type_0::SimdSha256Hash            0      0.00%     79.68% # Type of FU issued
system.switch_cpus0.iq.FU_type_0::SimdSha256Hash2            0      0.00%     79.68% # Type of FU issued
system.switch_cpus0.iq.FU_type_0::SimdShaSigma2            0      0.00%     79.68% # Type of FU issued
system.switch_cpus0.iq.FU_type_0::SimdShaSigma3            0      0.00%     79.68% # Type of FU issued
system.switch_cpus0.iq.FU_type_0::SimdPredAlu            0      0.00%     79.68% # Type of FU issued
system.switch_cpus0.iq.FU_type_0::MemRead     51138102     15.20%     94.87% # Type of FU issued
system.switch_cpus0.iq.FU_type_0::MemWrite     16514091      4.91%     99.78% # Type of FU issued
system.switch_cpus0.iq.FU_type_0::FloatMemRead       432164      0.13%     99.91% # Type of FU issued
system.switch_cpus0.iq.FU_type_0::FloatMemWrite       301294      0.09%    100.00% # Type of FU issued
system.switch_cpus0.iq.FU_type_0::IprAccess            0      0.00%    100.00% # Type of FU issued
system.switch_cpus0.iq.FU_type_0::InstPrefetch            0      0.00%    100.00% # Type of FU issued
system.switch_cpus0.iq.FU_type_0::total     336467527                       # Type of FU issued
system.switch_cpus0.iq.fp_alu_accesses        1052313                       # Number of floating point alu accesses
system.switch_cpus0.iq.fp_inst_queue_reads      2095234                       # Number of floating instruction queue reads
system.switch_cpus0.iq.fp_inst_queue_wakeup_accesses      1010514                       # Number of floating instruction queue wakeup accesses
system.switch_cpus0.iq.fp_inst_queue_writes      1212632                       # Number of floating instruction queue writes
system.switch_cpus0.iq.fu_busy_cnt            5728685                       # FU busy when requested
system.switch_cpus0.iq.fu_busy_rate          0.017026                       # FU busy rate (busy events/executed inst)
system.switch_cpus0.iq.fu_full::No_OpClass            0      0.00%      0.00% # attempts to use FU when none available
system.switch_cpus0.iq.fu_full::IntAlu        4836011     84.42%     84.42% # attempts to use FU when none available
system.switch_cpus0.iq.fu_full::IntMult             0      0.00%     84.42% # attempts to use FU when none available
system.switch_cpus0.iq.fu_full::IntDiv              0      0.00%     84.42% # attempts to use FU when none available
system.switch_cpus0.iq.fu_full::FloatAdd            0      0.00%     84.42% # attempts to use FU when none available
system.switch_cpus0.iq.fu_full::FloatCmp            0      0.00%     84.42% # attempts to use FU when none available
system.switch_cpus0.iq.fu_full::FloatCvt            0      0.00%     84.42% # attempts to use FU when none available
system.switch_cpus0.iq.fu_full::FloatMult            0      0.00%     84.42% # attempts to use FU when none available
system.switch_cpus0.iq.fu_full::FloatMultAcc            0      0.00%     84.42% # attempts to use FU when none available
system.switch_cpus0.iq.fu_full::FloatDiv            0      0.00%     84.42% # attempts to use FU when none available
system.switch_cpus0.iq.fu_full::FloatMisc            0      0.00%     84.42% # attempts to use FU when none available
system.switch_cpus0.iq.fu_full::FloatSqrt            0      0.00%     84.42% # attempts to use FU when none available
system.switch_cpus0.iq.fu_full::SimdAdd             0      0.00%     84.42% # attempts to use FU when none available
system.switch_cpus0.iq.fu_full::SimdAddAcc            0      0.00%     84.42% # attempts to use FU when none available
system.switch_cpus0.iq.fu_full::SimdAlu             0      0.00%     84.42% # attempts to use FU when none available
system.switch_cpus0.iq.fu_full::SimdCmp             0      0.00%     84.42% # attempts to use FU when none available
system.switch_cpus0.iq.fu_full::SimdCvt             0      0.00%     84.42% # attempts to use FU when none available
system.switch_cpus0.iq.fu_full::SimdMisc            0      0.00%     84.42% # attempts to use FU when none available
system.switch_cpus0.iq.fu_full::SimdMult            0      0.00%     84.42% # attempts to use FU when none available
system.switch_cpus0.iq.fu_full::SimdMultAcc            0      0.00%     84.42% # attempts to use FU when none available
system.switch_cpus0.iq.fu_full::SimdShift            0      0.00%     84.42% # attempts to use FU when none available
system.switch_cpus0.iq.fu_full::SimdShiftAcc            0      0.00%     84.42% # attempts to use FU when none available
system.switch_cpus0.iq.fu_full::SimdDiv             0      0.00%     84.42% # attempts to use FU when none available
system.switch_cpus0.iq.fu_full::SimdSqrt            0      0.00%     84.42% # attempts to use FU when none available
system.switch_cpus0.iq.fu_full::SimdFloatAdd            0      0.00%     84.42% # attempts to use FU when none available
system.switch_cpus0.iq.fu_full::SimdFloatAlu            0      0.00%     84.42% # attempts to use FU when none available
system.switch_cpus0.iq.fu_full::SimdFloatCmp            0      0.00%     84.42% # attempts to use FU when none available
system.switch_cpus0.iq.fu_full::SimdFloatCvt            0      0.00%     84.42% # attempts to use FU when none available
system.switch_cpus0.iq.fu_full::SimdFloatDiv            0      0.00%     84.42% # attempts to use FU when none available
system.switch_cpus0.iq.fu_full::SimdFloatMisc            0      0.00%     84.42% # attempts to use FU when none available
system.switch_cpus0.iq.fu_full::SimdFloatMult            0      0.00%     84.42% # attempts to use FU when none available
system.switch_cpus0.iq.fu_full::SimdFloatMultAcc            0      0.00%     84.42% # attempts to use FU when none available
system.switch_cpus0.iq.fu_full::SimdFloatSqrt            0      0.00%     84.42% # attempts to use FU when none available
system.switch_cpus0.iq.fu_full::SimdReduceAdd            0      0.00%     84.42% # attempts to use FU when none available
system.switch_cpus0.iq.fu_full::SimdReduceAlu            0      0.00%     84.42% # attempts to use FU when none available
system.switch_cpus0.iq.fu_full::SimdReduceCmp            0      0.00%     84.42% # attempts to use FU when none available
system.switch_cpus0.iq.fu_full::SimdFloatReduceAdd            0      0.00%     84.42% # attempts to use FU when none available
system.switch_cpus0.iq.fu_full::SimdFloatReduceCmp            0      0.00%     84.42% # attempts to use FU when none available
system.switch_cpus0.iq.fu_full::SimdAes             0      0.00%     84.42% # attempts to use FU when none available
system.switch_cpus0.iq.fu_full::SimdAesMix            0      0.00%     84.42% # attempts to use FU when none available
system.switch_cpus0.iq.fu_full::SimdSha1Hash            0      0.00%     84.42% # attempts to use FU when none available
system.switch_cpus0.iq.fu_full::SimdSha1Hash2            0      0.00%     84.42% # attempts to use FU when none available
system.switch_cpus0.iq.fu_full::SimdSha256Hash            0      0.00%     84.42% # attempts to use FU when none available
system.switch_cpus0.iq.fu_full::SimdSha256Hash2            0      0.00%     84.42% # attempts to use FU when none available
system.switch_cpus0.iq.fu_full::SimdShaSigma2            0      0.00%     84.42% # attempts to use FU when none available
system.switch_cpus0.iq.fu_full::SimdShaSigma3            0      0.00%     84.42% # attempts to use FU when none available
system.switch_cpus0.iq.fu_full::SimdPredAlu            0      0.00%     84.42% # attempts to use FU when none available
system.switch_cpus0.iq.fu_full::MemRead        703517     12.28%     96.70% # attempts to use FU when none available
system.switch_cpus0.iq.fu_full::MemWrite       177637      3.10%     99.80% # attempts to use FU when none available
system.switch_cpus0.iq.fu_full::FloatMemRead         4699      0.08%     99.88% # attempts to use FU when none available
system.switch_cpus0.iq.fu_full::FloatMemWrite         6821      0.12%    100.00% # attempts to use FU when none available
system.switch_cpus0.iq.fu_full::IprAccess            0      0.00%    100.00% # attempts to use FU when none available
system.switch_cpus0.iq.fu_full::InstPrefetch            0      0.00%    100.00% # attempts to use FU when none available
system.switch_cpus0.iq.int_alu_accesses     339354580                       # Number of integer alu accesses
system.switch_cpus0.iq.int_inst_queue_reads    798027661                       # Number of integer instruction queue reads
system.switch_cpus0.iq.int_inst_queue_wakeup_accesses    327616594                       # Number of integer instruction queue wakeup accesses
system.switch_cpus0.iq.int_inst_queue_writes    567073490                       # Number of integer instruction queue writes
system.switch_cpus0.iq.iqInstsAdded         402502339                       # Number of instructions added to the IQ (excludes non-spec)
system.switch_cpus0.iq.iqInstsIssued        336467527                       # Number of instructions issued
system.switch_cpus0.iq.iqNonSpecInstsAdded            9                       # Number of non-speculative instructions added to the IQ
system.switch_cpus0.iq.iqSquashedInstsExamined    165764979                       # Number of squashed instructions iterated over during squash; mainly for profiling
system.switch_cpus0.iq.iqSquashedInstsIssued      1612427                       # Number of squashed instructions issued
system.switch_cpus0.iq.iqSquashedNonSpecRemoved            9                       # Number of squashed non-spec instructions that were removed
system.switch_cpus0.iq.iqSquashedOperandsExamined    242587484                       # Number of squashed operands that are examined and possibly removed from graph
system.switch_cpus0.iq.issued_per_cycle::samples    119846729                       # Number of insts issued each cycle
system.switch_cpus0.iq.issued_per_cycle::mean     2.807482                       # Number of insts issued each cycle
system.switch_cpus0.iq.issued_per_cycle::stdev     2.591474                       # Number of insts issued each cycle
system.switch_cpus0.iq.issued_per_cycle::underflows            0      0.00%      0.00% # Number of insts issued each cycle
system.switch_cpus0.iq.issued_per_cycle::0     36880645     30.77%     30.77% # Number of insts issued each cycle
system.switch_cpus0.iq.issued_per_cycle::1     12646501     10.55%     41.33% # Number of insts issued each cycle
system.switch_cpus0.iq.issued_per_cycle::2     11875303      9.91%     51.23% # Number of insts issued each cycle
system.switch_cpus0.iq.issued_per_cycle::3     11645826      9.72%     60.95% # Number of insts issued each cycle
system.switch_cpus0.iq.issued_per_cycle::4     11646650      9.72%     70.67% # Number of insts issued each cycle
system.switch_cpus0.iq.issued_per_cycle::5     11240011      9.38%     80.05% # Number of insts issued each cycle
system.switch_cpus0.iq.issued_per_cycle::6     10522576      8.78%     88.83% # Number of insts issued each cycle
system.switch_cpus0.iq.issued_per_cycle::7      7902905      6.59%     95.42% # Number of insts issued each cycle
system.switch_cpus0.iq.issued_per_cycle::8      5486312      4.58%    100.00% # Number of insts issued each cycle
system.switch_cpus0.iq.issued_per_cycle::overflows            0      0.00%    100.00% # Number of insts issued each cycle
system.switch_cpus0.iq.issued_per_cycle::min_value            0                       # Number of insts issued each cycle
system.switch_cpus0.iq.issued_per_cycle::max_value            8                       # Number of insts issued each cycle
system.switch_cpus0.iq.issued_per_cycle::total    119846729                       # Number of insts issued each cycle
system.switch_cpus0.iq.rate                  2.805465                       # Inst issue rate
system.switch_cpus0.iq.vec_alu_accesses             0                       # Number of vector alu accesses
system.switch_cpus0.iq.vec_inst_queue_reads            0                       # Number of vector instruction queue reads
system.switch_cpus0.iq.vec_inst_queue_wakeup_accesses            0                       # Number of vector instruction queue wakeup accesses
system.switch_cpus0.iq.vec_inst_queue_writes            0                       # Number of vector instruction queue writes
system.switch_cpus0.memDep0.conflictingLoads      3478368                       # Number of conflicting loads.
system.switch_cpus0.memDep0.conflictingStores      1965090                       # Number of conflicting stores.
system.switch_cpus0.memDep0.insertedLoads     61617740                       # Number of loads inserted to the mem dependence unit.
system.switch_cpus0.memDep0.insertedStores     20072224                       # Number of stores inserted to the mem dependence unit.
system.switch_cpus0.misc_regfile_reads      129095698                       # number of misc regfile reads
system.switch_cpus0.misc_regfile_writes             1                       # number of misc regfile writes
system.switch_cpus0.numCycles               119932905                       # number of cpu cycles simulated
system.switch_cpus0.numWorkItemsCompleted            0                       # number of work items this cpu completed
system.switch_cpus0.numWorkItemsStarted             0                       # number of work items this cpu started
system.switch_cpus0.timesIdled                    363                       # Number of times that the entire CPU went into an idle state and unscheduled itself
system.switch_cpus1.cc_regfile_reads        206509202                       # number of cc regfile reads
system.switch_cpus1.cc_regfile_writes       211604919                       # number of cc regfile writes
system.switch_cpus1.committedInsts          216477388                       # Number of Instructions Simulated
system.switch_cpus1.committedOps            424107281                       # Number of Ops (including micro ops) Simulated
system.switch_cpus1.cpi                      0.554020                       # CPI: Cycles Per Instruction
system.switch_cpus1.cpi_total                0.554020                       # CPI: Total CPI of All Threads
system.switch_cpus1.fp_regfile_reads             6894                       # number of floating regfile reads
system.switch_cpus1.fp_regfile_writes            6986                       # number of floating regfile writes
system.switch_cpus1.idleCycles                 235997                       # Total number of cycles that the CPU has spent unscheduled due to idling
system.switch_cpus1.iew.branchMispredicts      2458772                       # Number of branch mispredicts detected at execute
system.switch_cpus1.iew.exec_branches        40475120                       # Number of branches executed
system.switch_cpus1.iew.exec_nop                    0                       # number of nop insts executed
system.switch_cpus1.iew.exec_rate            4.208357                       # Inst execution rate
system.switch_cpus1.iew.exec_refs           146939671                       # number of memory reference insts executed
system.switch_cpus1.iew.exec_stores          39960694                       # Number of stores executed
system.switch_cpus1.iew.exec_swp                    0                       # number of swp insts executed
system.switch_cpus1.iew.iewBlockCycles       14642532                       # Number of cycles IEW is blocking
system.switch_cpus1.iew.iewDispLoadInsts    116433555                       # Number of dispatched load instructions
system.switch_cpus1.iew.iewDispNonSpecInsts            0                       # Number of dispatched non-speculative instructions
system.switch_cpus1.iew.iewDispSquashedInsts        10767                       # Number of squashed instructions skipped by dispatch
system.switch_cpus1.iew.iewDispStoreInsts     46548229                       # Number of dispatched store instructions
system.switch_cpus1.iew.iewDispatchedInsts    548523126                       # Number of instructions dispatched to IQ
system.switch_cpus1.iew.iewExecLoadInsts    106978977                       # Number of load instructions executed
system.switch_cpus1.iew.iewExecSquashedInsts      6800743                       # Number of squashed instructions skipped in execute
system.switch_cpus1.iew.iewExecutedInsts    504720438                       # Number of executed instructions
system.switch_cpus1.iew.iewIQFullEvents            39                       # Number of times the IQ has become full, causing a stall
system.switch_cpus1.iew.iewIdleCycles               0                       # Number of cycles IEW is idle
system.switch_cpus1.iew.iewLSQFullEvents         3394                       # Number of times the LSQ has become full, causing a stall
system.switch_cpus1.iew.iewSquashCycles       2006390                       # Number of cycles IEW is squashing
system.switch_cpus1.iew.iewUnblockCycles         3441                       # Number of cycles IEW is unblocking
system.switch_cpus1.iew.memOrderViolationEvents        34875                       # Number of memory order violations
system.switch_cpus1.iew.predictedNotTakenIncorrect      1224470                       # Number of branches that were predicted not taken incorrectly
system.switch_cpus1.iew.predictedTakenIncorrect      1234302                       # Number of branches that were predicted taken incorrectly
system.switch_cpus1.iew.wb_consumers        566761645                       # num instructions consuming a value
system.switch_cpus1.iew.wb_count            501577026                       # cumulative count of insts written-back
system.switch_cpus1.iew.wb_fanout            0.668555                       # average fanout of values written-back
system.switch_cpus1.iew.wb_producers        378911436                       # num instructions producing a value
system.switch_cpus1.iew.wb_rate              4.182147                       # insts written-back per cycle
system.switch_cpus1.iew.wb_sent             503673551                       # cumulative count of insts sent to commit
system.switch_cpus1.int_regfile_reads       729242571                       # number of integer regfile reads
system.switch_cpus1.int_regfile_writes      423341618                       # number of integer regfile writes
system.switch_cpus1.ipc                      1.804987                       # IPC: Instructions Per Cycle
system.switch_cpus1.ipc_total                1.804987                       # IPC: Total IPC of All Threads
system.switch_cpus1.iq.FU_type_0::No_OpClass      1115234      0.22%      0.22% # Type of FU issued
system.switch_cpus1.iq.FU_type_0::IntAlu    357147427     69.82%     70.04% # Type of FU issued
system.switch_cpus1.iq.FU_type_0::IntMult      3025636      0.59%     70.63% # Type of FU issued
system.switch_cpus1.iq.FU_type_0::IntDiv        32116      0.01%     70.64% # Type of FU issued
system.switch_cpus1.iq.FU_type_0::FloatAdd            0      0.00%     70.64% # Type of FU issued
system.switch_cpus1.iq.FU_type_0::FloatCmp            0      0.00%     70.64% # Type of FU issued
system.switch_cpus1.iq.FU_type_0::FloatCvt            0      0.00%     70.64% # Type of FU issued
system.switch_cpus1.iq.FU_type_0::FloatMult            0      0.00%     70.64% # Type of FU issued
system.switch_cpus1.iq.FU_type_0::FloatMultAcc            0      0.00%     70.64% # Type of FU issued
system.switch_cpus1.iq.FU_type_0::FloatDiv            0      0.00%     70.64% # Type of FU issued
system.switch_cpus1.iq.FU_type_0::FloatMisc            0      0.00%     70.64% # Type of FU issued
system.switch_cpus1.iq.FU_type_0::FloatSqrt            0      0.00%     70.64% # Type of FU issued
system.switch_cpus1.iq.FU_type_0::SimdAdd            0      0.00%     70.64% # Type of FU issued
system.switch_cpus1.iq.FU_type_0::SimdAddAcc            0      0.00%     70.64% # Type of FU issued
system.switch_cpus1.iq.FU_type_0::SimdAlu            0      0.00%     70.64% # Type of FU issued
system.switch_cpus1.iq.FU_type_0::SimdCmp            0      0.00%     70.64% # Type of FU issued
system.switch_cpus1.iq.FU_type_0::SimdCvt            0      0.00%     70.64% # Type of FU issued
system.switch_cpus1.iq.FU_type_0::SimdMisc            0      0.00%     70.64% # Type of FU issued
system.switch_cpus1.iq.FU_type_0::SimdMult            0      0.00%     70.64% # Type of FU issued
system.switch_cpus1.iq.FU_type_0::SimdMultAcc            0      0.00%     70.64% # Type of FU issued
system.switch_cpus1.iq.FU_type_0::SimdShift            0      0.00%     70.64% # Type of FU issued
system.switch_cpus1.iq.FU_type_0::SimdShiftAcc            0      0.00%     70.64% # Type of FU issued
system.switch_cpus1.iq.FU_type_0::SimdDiv            0      0.00%     70.64% # Type of FU issued
system.switch_cpus1.iq.FU_type_0::SimdSqrt            0      0.00%     70.64% # Type of FU issued
system.switch_cpus1.iq.FU_type_0::SimdFloatAdd            0      0.00%     70.64% # Type of FU issued
system.switch_cpus1.iq.FU_type_0::SimdFloatAlu            0      0.00%     70.64% # Type of FU issued
system.switch_cpus1.iq.FU_type_0::SimdFloatCmp            0      0.00%     70.64% # Type of FU issued
system.switch_cpus1.iq.FU_type_0::SimdFloatCvt            0      0.00%     70.64% # Type of FU issued
system.switch_cpus1.iq.FU_type_0::SimdFloatDiv            0      0.00%     70.64% # Type of FU issued
system.switch_cpus1.iq.FU_type_0::SimdFloatMisc            0      0.00%     70.64% # Type of FU issued
system.switch_cpus1.iq.FU_type_0::SimdFloatMult            0      0.00%     70.64% # Type of FU issued
system.switch_cpus1.iq.FU_type_0::SimdFloatMultAcc            0      0.00%     70.64% # Type of FU issued
system.switch_cpus1.iq.FU_type_0::SimdFloatSqrt            0      0.00%     70.64% # Type of FU issued
system.switch_cpus1.iq.FU_type_0::SimdReduceAdd            0      0.00%     70.64% # Type of FU issued
system.switch_cpus1.iq.FU_type_0::SimdReduceAlu            0      0.00%     70.64% # Type of FU issued
system.switch_cpus1.iq.FU_type_0::SimdReduceCmp            0      0.00%     70.64% # Type of FU issued
system.switch_cpus1.iq.FU_type_0::SimdFloatReduceAdd            0      0.00%     70.64% # Type of FU issued
system.switch_cpus1.iq.FU_type_0::SimdFloatReduceCmp            0      0.00%     70.64% # Type of FU issued
[...]
system.switch_cpus3.commit.numCommittedDist::stdev     3.090417                       # Number of insts commited each cycle
system.switch_cpus3.commit.numCommittedDist::underflows            0      0.00%      0.00% # Number of insts commited each cycle
system.switch_cpus3.commit.numCommittedDist::0     82894828     69.17%     69.17% # Number of insts commited each cycle
system.switch_cpus3.commit.numCommittedDist::1      6324396      5.28%     74.44% # Number of insts commited each cycle
system.switch_cpus3.commit.numCommittedDist::2      2271673      1.90%     76.34% # Number of insts commited each cycle
system.switch_cpus3.commit.numCommittedDist::3      2761710      2.30%     78.64% # Number of insts commited each cycle
system.switch_cpus3.commit.numCommittedDist::4      1990091      1.66%     80.30% # Number of insts commited each cycle
system.switch_cpus3.commit.numCommittedDist::5       878090      0.73%     81.04% # Number of insts commited each cycle
system.switch_cpus3.commit.numCommittedDist::6       414679      0.35%     81.38% # Number of insts commited each cycle
system.switch_cpus3.commit.numCommittedDist::7      1359621      1.13%     82.52% # Number of insts commited each cycle
system.switch_cpus3.commit.numCommittedDist::8     20952186     17.48%    100.00% # Number of insts commited each cycle
system.switch_cpus3.commit.numCommittedDist::overflows            0      0.00%    100.00% # Number of insts commited each cycle
system.switch_cpus3.commit.numCommittedDist::min_value            0                       # Number of insts commited each cycle
system.switch_cpus3.commit.numCommittedDist::max_value            8                       # Number of insts commited each cycle
system.switch_cpus3.commit.numCommittedDist::total    119847274                       # Number of insts commited each cycle
system.switch_cpus3.commit.instsCommitted    128133578                       # Number of instructions committed
system.switch_cpus3.commit.opsCommitted     211126595                       # Number of ops (including micro ops) committed
system.switch_cpus3.commit.memRefs           47269879                       # Number of memory references committed
system.switch_cpus3.commit.loads             33305191                       # Number of loads committed
system.switch_cpus3.commit.amos                     0                       # Number of atomic instructions committed
system.switch_cpus3.commit.membars                  0                       # Number of memory barriers committed
system.switch_cpus3.commit.branches          15726435                       # Number of branches committed
system.switch_cpus3.commit.vector                   0                       # Number of committed Vector instructions.
system.switch_cpus3.commit.floating          90344640                       # Number of committed floating point instructions.
system.switch_cpus3.commit.integer          151570683                       # Number of committed integer instructions.
system.switch_cpus3.commit.functionCalls      1180161                       # Number of function calls committed.
system.switch_cpus3.commit.committedInstType_0::No_OpClass         8833      0.00%      0.00% # Class of committed instruction
system.switch_cpus3.commit.committedInstType_0::IntAlu    118384759     56.07%     56.08% # Class of committed instruction
system.switch_cpus3.commit.committedInstType_0::IntMult         3743      0.00%     56.08% # Class of committed instruction
system.switch_cpus3.commit.committedInstType_0::IntDiv            0      0.00%     56.08% # Class of committed instruction
system.switch_cpus3.commit.committedInstType_0::FloatAdd      4423979      2.10%     58.17% # Class of committed instruction
system.switch_cpus3.commit.committedInstType_0::FloatCmp            0      0.00%     58.17% # Class of committed instruction
system.switch_cpus3.commit.committedInstType_0::FloatCvt            0      0.00%     58.17% # Class of committed instruction
system.switch_cpus3.commit.committedInstType_0::FloatMult            0      0.00%     58.17% # Class of committed instruction
system.switch_cpus3.commit.committedInstType_0::FloatMultAcc            0      0.00%     58.17% # Class of committed instruction
system.switch_cpus3.commit.committedInstType_0::FloatDiv            0      0.00%     58.17% # Class of committed instruction
system.switch_cpus3.commit.committedInstType_0::FloatMisc            0      0.00%     58.17% # Class of committed instruction
system.switch_cpus3.commit.committedInstType_0::FloatSqrt            0      0.00%     58.17% # Class of committed instruction
system.switch_cpus3.commit.committedInstType_0::SimdAdd            0      0.00%     58.17% # Class of committed instruction
system.switch_cpus3.commit.committedInstType_0::SimdAddAcc            0      0.00%     58.17% # Class of committed instruction
system.switch_cpus3.commit.committedInstType_0::SimdAlu      4816334      2.28%     60.46% # Class of committed instruction
system.switch_cpus3.commit.committedInstType_0::SimdCmp            0      0.00%     60.46% # Class of committed instruction
system.switch_cpus3.commit.committedInstType_0::SimdCvt            0      0.00%     60.46% # Class of committed instruction
system.switch_cpus3.commit.committedInstType_0::SimdMisc      2656287      1.26%     61.71% # Class of committed instruction
system.switch_cpus3.commit.committedInstType_0::SimdMult            0      0.00%     61.71% # Class of committed instruction
system.switch_cpus3.commit.committedInstType_0::SimdMultAcc            0      0.00%     61.71% # Class of committed instruction
system.switch_cpus3.commit.committedInstType_0::SimdShift            0      0.00%     61.71% # Class of committed instruction
system.switch_cpus3.commit.committedInstType_0::SimdShiftAcc            0      0.00%     61.71% # Class of committed instruction
system.switch_cpus3.commit.committedInstType_0::SimdDiv            0      0.00%     61.71% # Class of committed instruction
system.switch_cpus3.commit.committedInstType_0::SimdSqrt            0      0.00%     61.71% # Class of committed instruction
system.switch_cpus3.commit.committedInstType_0::SimdFloatAdd     13763168      6.52%     68.23% # Class of committed instruction
system.switch_cpus3.commit.committedInstType_0::SimdFloatAlu            0      0.00%     68.23% # Class of committed instruction
system.switch_cpus3.commit.committedInstType_0::SimdFloatCmp       376832      0.18%     68.41% # Class of committed instruction
system.switch_cpus3.commit.committedInstType_0::SimdFloatCvt      3194880      1.51%     69.92% # Class of committed instruction
system.switch_cpus3.commit.committedInstType_0::SimdFloatDiv      2604023      1.23%     71.16% # Class of committed instruction
system.switch_cpus3.commit.committedInstType_0::SimdFloatMisc            0      0.00%     71.16% # Class of committed instruction
system.switch_cpus3.commit.committedInstType_0::SimdFloatMult     13214276      6.26%     77.42% # Class of committed instruction
system.switch_cpus3.commit.committedInstType_0::SimdFloatMultAcc            0      0.00%     77.42% # Class of committed instruction
system.switch_cpus3.commit.committedInstType_0::SimdFloatSqrt       409602      0.19%     77.61% # Class of committed instruction
system.switch_cpus3.commit.committedInstType_0::SimdReduceAdd            0      0.00%     77.61% # Class of committed instruction
system.switch_cpus3.commit.committedInstType_0::SimdReduceAlu            0      0.00%     77.61% # Class of committed instruction
system.switch_cpus3.commit.committedInstType_0::SimdReduceCmp            0      0.00%     77.61% # Class of committed instruction
system.switch_cpus3.commit.committedInstType_0::SimdFloatReduceAdd            0      0.00%     77.61% # Class of committed instruction
system.switch_cpus3.commit.committedInstType_0::SimdFloatReduceCmp            0      0.00%     77.61% # Class of committed instruction
system.switch_cpus3.commit.committedInstType_0::SimdAes            0      0.00%     77.61% # Class of committed instruction
system.switch_cpus3.commit.committedInstType_0::SimdAesMix            0      0.00%     77.61% # Class of committed instruction
system.switch_cpus3.commit.committedInstType_0::SimdSha1Hash            0      0.00%     77.61% # Class of committed instruction
system.switch_cpus3.commit.committedInstType_0::SimdSha1Hash2            0      0.00%     77.61% # Class of committed instruction
system.switch_cpus3.commit.committedInstType_0::SimdSha256Hash            0      0.00%     77.61% # Class of committed instruction
system.switch_cpus3.commit.committedInstType_0::SimdSha256Hash2            0      0.00%     77.61% # Class of committed instruction
system.switch_cpus3.commit.committedInstType_0::SimdShaSigma2            0      0.00%     77.61% # Class of committed instruction
system.switch_cpus3.commit.committedInstType_0::SimdShaSigma3            0      0.00%     77.61% # Class of committed instruction
system.switch_cpus3.commit.committedInstType_0::SimdPredAlu            0      0.00%     77.61% # Class of committed instruction
system.switch_cpus3.commit.committedInstType_0::MemRead     12853854      6.09%     83.70% # Class of committed instruction
system.switch_cpus3.commit.committedInstType_0::MemWrite      6271777      2.97%     86.67% # Class of committed instruction
system.switch_cpus3.commit.committedInstType_0::FloatMemRead     20451337      9.69%     96.36% # Class of committed instruction
system.switch_cpus3.commit.committedInstType_0::FloatMemWrite      7692911      3.64%    100.00% # Class of committed instruction
system.switch_cpus3.commit.committedInstType_0::IprAccess            0      0.00%    100.00% # Class of committed instruction
system.switch_cpus3.commit.committedInstType_0::InstPrefetch            0      0.00%    100.00% # Class of committed instruction
system.switch_cpus3.commit.committedInstType_0::total    211126595                       # Class of committed instruction
system.switch_cpus3.commit.commitEligibleSamples     20952186                       # number cycles where commit BW limit reached
system.switch_cpus3.decode.idleCycles         2142873                       # Number of cycles decode is idle
system.switch_cpus3.decode.blockedCycles     86085855                       # Number of cycles decode is blocked
system.switch_cpus3.decode.runCycles         29066603                       # Number of cycles decode is running
system.switch_cpus3.decode.unblockCycles      2587614                       # Number of cycles decode is unblocking
system.switch_cpus3.decode.squashCycles         11854                       # Number of cycles decode is squashing
system.switch_cpus3.decode.branchResolved      6133835                       # Number of times decode resolved a  branch
system.switch_cpus3.decode.branchMispred          107                       # Number of times decode detected a branch misprediction
system.switch_cpus3.decode.decodedInsts     211624284                       # Number of instructions handled by decode
system.switch_cpus3.decode.squashedInsts          527                       # Number of squashed instructions handled by decode
system.switch_cpus3.dtb.rdAccesses           33362025                       # TLB accesses on read requests
system.switch_cpus3.dtb.wrAccesses           13972882                       # TLB accesses on write requests
system.switch_cpus3.dtb.rdMisses                36760                       # TLB misses on read requests
system.switch_cpus3.dtb.wrMisses                 7096                       # TLB misses on write requests
system.switch_cpus3.dtb.walker.power_state.pwrStateResidencyTicks::UNDEFINED 15691194745020                       # Cumulative time (in ticks) in various power states
system.switch_cpus3.fetch.icacheStallCycles        39984                       # Number of cycles fetch is stalled on an Icache miss
system.switch_cpus3.fetch.insts             128676835                       # Number of instructions fetch has processed
system.switch_cpus3.fetch.branches           15767181                       # Number of branches that fetch encountered
system.switch_cpus3.fetch.predictedBranches      8804598                       # Number of branches that fetch has predicted taken
system.switch_cpus3.fetch.cycles            119842867                       # Number of cycles fetch has run and was not squashing or blocked
system.switch_cpus3.fetch.squashCycles          23918                       # Number of cycles fetch has spent squashing
system.switch_cpus3.fetch.cacheLines         16128282                       # Number of cache lines fetched
system.switch_cpus3.fetch.icacheSquashes          179                       # Number of outstanding Icache misses that were squashed
system.switch_cpus3.fetch.nisnDist::samples    119894810                       # Number of instructions fetched each cycle (Total)
system.switch_cpus3.fetch.nisnDist::mean     1.767237                       # Number of instructions fetched each cycle (Total)
system.switch_cpus3.fetch.nisnDist::stdev     3.098647                       # Number of instructions fetched each cycle (Total)
system.switch_cpus3.fetch.nisnDist::underflows            0      0.00%      0.00% # Number of instructions fetched each cycle (Total)
system.switch_cpus3.fetch.nisnDist::0        84918487     70.83%     70.83% # Number of instructions fetched each cycle (Total)
system.switch_cpus3.fetch.nisnDist::1         3868529      3.23%     74.05% # Number of instructions fetched each cycle (Total)
system.switch_cpus3.fetch.nisnDist::2         1160360      0.97%     75.02% # Number of instructions fetched each cycle (Total)
system.switch_cpus3.fetch.nisnDist::3         4190448      3.50%     78.52% # Number of instructions fetched each cycle (Total)
system.switch_cpus3.fetch.nisnDist::4         1015470      0.85%     79.36% # Number of instructions fetched each cycle (Total)
system.switch_cpus3.fetch.nisnDist::5         1739712      1.45%     80.82% # Number of instructions fetched each cycle (Total)
system.switch_cpus3.fetch.nisnDist::6         1172211      0.98%     81.79% # Number of instructions fetched each cycle (Total)
system.switch_cpus3.fetch.nisnDist::7         1308498      1.09%     82.88% # Number of instructions fetched each cycle (Total)
system.switch_cpus3.fetch.nisnDist::8        20521095     17.12%    100.00% # Number of instructions fetched each cycle (Total)
system.switch_cpus3.fetch.nisnDist::overflows            0      0.00%    100.00% # Number of instructions fetched each cycle (Total)
system.switch_cpus3.fetch.nisnDist::min_value            0                       # Number of instructions fetched each cycle (Total)
system.switch_cpus3.fetch.nisnDist::max_value            8                       # Number of instructions fetched each cycle (Total)
system.switch_cpus3.fetch.nisnDist::total    119894810                       # Number of instructions fetched each cycle (Total)
system.switch_cpus3.fetch.branchRate         0.131467                       # Number of branch fetches per cycle
system.switch_cpus3.fetch.rate               1.072907                       # Number of inst fetches per cycle
system.switch_cpus3.itb.rdAccesses                  0                       # TLB accesses on read requests
system.switch_cpus3.itb.wrAccesses           16128282                       # TLB accesses on write requests
system.switch_cpus3.itb.rdMisses                    0                       # TLB misses on read requests
system.switch_cpus3.itb.wrMisses                   21                       # TLB misses on write requests
system.switch_cpus3.itb.walker.power_state.pwrStateResidencyTicks::UNDEFINED 15691194745020                       # Cumulative time (in ticks) in various power states
system.switch_cpus3.lsq0.forwLoads            2414440                       # Number of loads that had data forwarded from stores
system.switch_cpus3.lsq0.squashedLoads          80128                       # Number of loads squashed
system.switch_cpus3.lsq0.ignoredResponses           37                       # Number of memory responses ignored because the instruction is squashed
system.switch_cpus3.lsq0.memOrderViolation          804                       # Number of memory ordering violations
system.switch_cpus3.lsq0.squashedStores         33727                       # Number of stores squashed
system.switch_cpus3.lsq0.rescheduledLoads            0                       # Number of loads that were rescheduled
system.switch_cpus3.lsq0.blockedByCache             6                       # Number of times an access to memory failed due to the cache being blocked
system.switch_cpus3.power_state.pwrStateResidencyTicks::OFF  39937667688                       # Cumulative time (in ticks) in various power states
system.switch_cpus3.rename.squashCycles         11854                       # Number of cycles rename is squashing
system.switch_cpus3.rename.idleCycles         3272475                       # Number of cycles rename is idle
system.switch_cpus3.rename.blockCycles       35825855                       # Number of cycles rename is blocking
system.switch_cpus3.rename.serializeStallCycles            0                       # count of cycles rename stalledfor serializing inst
system.switch_cpus3.rename.runCycles         30468978                       # Number of cycles rename is running
system.switch_cpus3.rename.unblockCycles     50315637                       # Number of cycles rename is unblocking
system.switch_cpus3.rename.renamedInsts     211541704                       # Number of instructions processed by rename
system.switch_cpus3.rename.ROBFullEvents      1209536                       # Number of times rename has blocked due to ROB full
system.switch_cpus3.rename.IQFullEvents       3086900                       # Number of times rename has blocked due to IQ full
system.switch_cpus3.rename.LQFullEvents      18985662                       # Number of times rename has blocked due to LQ full
system.switch_cpus3.rename.SQFullEvents      28576255                       # Number of times rename has blocked due to SQ full
system.switch_cpus3.rename.renamedOperands    232663586                       # Number of destination operands rename has renamed
system.switch_cpus3.rename.lookups          514714902                       # Number of register rename lookups that rename has made
system.switch_cpus3.rename.intLookups       208229395                       # Number of integer rename lookups
system.switch_cpus3.rename.fpLookups        150824087                       # Number of floating rename lookups
system.switch_cpus3.rename.committedMaps    232198463                       # Number of HB maps that are committed
system.switch_cpus3.rename.undoneMaps          465123                       # Number of HB maps that are undone due to squashing
system.switch_cpus3.rename.serializing              0                       # count of serializing insts renamed
system.switch_cpus3.rename.tempSerializing            0                       # count of temporary serializing insts renamed
system.switch_cpus3.rename.skidInsts         13896237                       # count of insts added to the skid buffer
system.switch_cpus3.rob.reads               310351323                       # The number of ROB reads
system.switch_cpus3.rob.writes              422960098                       # The number of ROB writes
system.switch_cpus3.thread0.numInsts        128133578                       # Number of Instructions committed
system.switch_cpus3.thread0.numOps          211126595                       # Number of Ops committed
system.switch_cpus3.thread0.numMemRefs              0                       # Number of Memory References
system.voltage_domain.voltage                       1                       # Voltage in Volts

---------- End Simulation Statistics   ----------
