
---------- Begin Simulation Statistics ----------
final_tick                               15691292984682                       # Number of ticks from beginning of simulation (restored from checkpoints and never reset)
host_inst_rate                                 131350                       # Simulator instruction rate (inst/s)
host_mem_usage                               17332148                       # Number of bytes of host memory used
host_op_rate                                   243763                       # Simulator op (including micro ops) rate (op/s)
host_seconds                                  5498.55                       # Real time elapsed on the host
host_tick_rate                                7281173                       # Simulator tick rate (ticks/s)
sim_freq                                 1000000000000                       # Frequency of simulated ticks
sim_insts                                   722235212                       # Number of instructions simulated
sim_ops                                    1340339830                       # Number of ops (including micro ops) simulated
sim_seconds                                  0.040036                       # Number of seconds simulated
sim_ticks                                 40035866058                       # Number of ticks simulated
system.cpu0.Branches                                3                       # Number of branches fetched
system.cpu0.committedInsts                         13                       # Number of instructions committed
system.cpu0.committedOps                           23                       # Number of ops (including micro ops) committed
system.cpu0.idle_fraction                           0                       # Percentage of idle cycles
system.cpu0.l2bus.snoop_filter.hit_multi_requests           80                       # Number of requests hitting in the snoop filter with multiple (>1) holders of the requested data.
system.cpu0.l2bus.snoop_filter.hit_multi_snoops            0                       # Number of snoops hitting in the snoop filter with multiple (>1) holders of the requested data.
system.cpu0.l2bus.snoop_filter.hit_single_requests       484047                       # Number of requests hitting in the snoop filter with a single holder of the requested data.
system.cpu0.l2bus.snoop_filter.hit_single_snoops          502                       # Number of snoops hitting in the snoop filter with a single holder of the requested data.
system.cpu0.l2bus.snoop_filter.tot_requests       968950                       # Total number of requests made to the snoop filter.
system.cpu0.l2bus.snoop_filter.tot_snoops          502                       # Total number of snoops made to the snoop filter.
system.cpu0.mmucache.mmubus.snoop_filter.hit_multi_requests            0                       # Number of requests hitting in the snoop filter with multiple (>1) holders of the requested data.
system.cpu0.mmucache.mmubus.snoop_filter.hit_multi_snoops            0                       # Number of snoops hitting in the snoop filter with multiple (>1) holders of the requested data.
system.cpu0.mmucache.mmubus.snoop_filter.hit_single_requests            0                       # Number of requests hitting in the snoop filter with a single holder of the requested data.
system.cpu0.mmucache.mmubus.snoop_filter.hit_single_snoops            0                       # Number of snoops hitting in the snoop filter with a single holder of the requested data.
system.cpu0.mmucache.mmubus.snoop_filter.tot_requests            0                       # Total number of requests made to the snoop filter.
system.cpu0.mmucache.mmubus.snoop_filter.tot_snoops            0                       # Total number of snoops made to the snoop filter.
system.cpu0.not_idle_fraction                       1                       # Percentage of non-idle cycles
system.cpu0.numCycles                              30                       # number of cpu cycles simulated
system.cpu0.numWorkItemsCompleted                   0                       # number of work items this cpu completed
system.cpu0.numWorkItemsStarted                     0                       # number of work items this cpu started
system.cpu0.num_busy_cycles                        30                       # Number of busy cycles
system.cpu0.num_cc_register_reads                  15                       # number of times the CC registers were read
system.cpu0.num_cc_register_writes                 10                       # number of times the CC registers were written
system.cpu0.num_conditional_control_insts            3                       # number of instructions that are conditional controls
system.cpu0.num_fp_alu_accesses                     0                       # Number of float alu accesses
system.cpu0.num_fp_insts                            0                       # number of float instructions
system.cpu0.num_fp_register_reads                   0                       # number of times the floating registers were read
system.cpu0.num_fp_register_writes                  0                       # number of times the floating registers were written
system.cpu0.num_func_calls                          0                       # number of times a function call or return occured
system.cpu0.num_idle_cycles                         0                       # Number of idle cycles
system.cpu0.num_int_alu_accesses                   23                       # Number of integer alu accesses
system.cpu0.num_int_insts                          23                       # number of integer instructions
system.cpu0.num_int_register_reads                 39                       # number of times the integer registers were read
system.cpu0.num_int_register_writes                20                       # number of times the integer registers were written
system.cpu0.num_load_insts                          4                       # Number of load instructions
system.cpu0.num_mem_refs                            4                       # number of memory refs
system.cpu0.num_store_insts                         0                       # Number of store instructions
system.cpu0.num_vec_alu_accesses                    0                       # Number of vector alu accesses
system.cpu0.num_vec_insts                           0                       # number of vector instructions
system.cpu0.num_vec_register_reads                  0                       # number of times the vector registers were read
system.cpu0.num_vec_register_writes                 0                       # number of times the vector registers were written
system.cpu0.op_class::No_OpClass                    0      0.00%      0.00% # Class of executed instruction
system.cpu0.op_class::IntAlu                       19     82.61%     82.61% # Class of executed instruction
system.cpu0.op_class::IntMult                       0      0.00%     82.61% # Class of executed instruction
system.cpu0.op_class::IntDiv                        0      0.00%     82.61% # Class of executed instruction
system.cpu0.op_class::FloatAdd                      0      0.00%     82.61% # Class of executed instruction
system.cpu0.op_class::FloatCmp                      0      0.00%     82.61% # Class of executed instruction
system.cpu0.op_class::FloatCvt                      0      0.00%     82.61% # Class of executed instruction
system.cpu0.op_class::FloatMult                     0      0.00%     82.61% # Class of executed instruction
system.cpu0.op_class::FloatMultAcc                  0      0.00%     82.61% # Class of executed instruction
system.cpu0.op_class::FloatDiv                      0      0.00%     82.61% # Class of executed instruction
system.cpu0.op_class::FloatMisc                     0      0.00%     82.61% # Class of executed instruction
system.cpu0.op_class::FloatSqrt                     0      0.00%     82.61% # Class of executed instruction
system.cpu0.op_class::SimdAdd                       0      0.00%     82.61% # Class of executed instruction
system.cpu0.op_class::SimdAddAcc                    0      0.00%     82.61% # Class of executed instruction
system.cpu0.op_class::SimdAlu                       0      0.00%     82.61% # Class of executed instruction
system.cpu0.op_class::SimdCmp                       0      0.00%     82.61% # Class of executed instruction
system.cpu0.op_class::SimdCvt                       0      0.00%     82.61% # Class of executed instruction
system.cpu0.op_class::SimdMisc                      0      0.00%     82.61% # Class of executed instruction
system.cpu0.op_class::SimdMult                      0      0.00%     82.61% # Class of executed instruction
system.cpu0.op_class::SimdMultAcc                   0      0.00%     82.61% # Class of executed instruction
system.cpu0.op_class::SimdShift                     0      0.00%     82.61% # Class of executed instruction
system.cpu0.op_class::SimdShiftAcc                  0      0.00%     82.61% # Class of executed instruction
system.cpu0.op_class::SimdDiv                       0      0.00%     82.61% # Class of executed instruction
system.cpu0.op_class::SimdSqrt                      0      0.00%     82.61% # Class of executed instruction
system.cpu0.op_class::SimdFloatAdd                  0      0.00%     82.61% # Class of executed instruction
system.cpu0.op_class::SimdFloatAlu                  0      0.00%     82.61% # Class of executed instruction
system.cpu0.op_class::SimdFloatCmp                  0      0.00%     82.61% # Class of executed instruction
system.cpu0.op_class::SimdFloatCvt                  0      0.00%     82.61% # Class of executed instruction
system.cpu0.op_class::SimdFloatDiv                  0      0.00%     82.61% # Class of executed instruction
system.cpu0.op_class::SimdFloatMisc                 0      0.00%     82.61% # Class of executed instruction
system.cpu0.op_class::SimdFloatMult                 0      0.00%     82.61% # Class of executed instruction
system.cpu0.op_class::SimdFloatMultAcc              0      0.00%     82.61% # Class of executed instruction
system.cpu0.op_class::SimdFloatSqrt                 0      0.00%     82.61% # Class of executed instruction
system.cpu0.op_class::SimdReduceAdd                 0      0.00%     82.61% # Class of executed instruction
system.cpu0.op_class::SimdReduceAlu                 0      0.00%     82.61% # Class of executed instruction
system.cpu0.op_class::SimdReduceCmp                 0      0.00%     82.61% # Class of executed instruction
system.cpu0.op_class::SimdFloatReduceAdd            0      0.00%     82.61% # Class of executed instruction
system.cpu0.op_class::SimdFloatReduceCmp            0      0.00%     82.61% # Class of executed instruction
system.cpu0.op_class::SimdAes                       0      0.00%     82.61% # Class of executed instruction
system.cpu0.op_class::SimdAesMix                    0      0.00%     82.61% # Class of executed instruction
system.cpu0.op_class::SimdSha1Hash                  0      0.00%     82.61% # Class of executed instruction
system.cpu0.op_class::SimdSha1Hash2                 0      0.00%     82.61% # Class of executed instruction
system.cpu0.op_class::SimdSha256Hash                0      0.00%     82.61% # Class of executed instruction
system.cpu0.op_class::SimdSha256Hash2               0      0.00%     82.61% # Class of executed instruction
system.cpu0.op_class::SimdShaSigma2                 0      0.00%     82.61% # Class of executed instruction
system.cpu0.op_class::SimdShaSigma3                 0      0.00%     82.61% # Class of executed instruction
system.cpu0.op_class::SimdPredAlu                   0      0.00%     82.61% # Class of executed instruction
system.cpu0.op_class::MemRead                       4     17.39%    100.00% # Class of executed instruction
system.cpu0.op_class::MemWrite                      0      0.00%    100.00% # Class of executed instruction
system.cpu0.op_class::FloatMemRead                  0      0.00%    100.00% # Class of executed instruction
system.cpu0.op_class::FloatMemWrite                 0      0.00%    100.00% # Class of executed instruction
system.cpu0.op_class::IprAccess                     0      0.00%    100.00% # Class of executed instruction
system.cpu0.op_class::InstPrefetch                  0      0.00%    100.00% # Class of executed instruction
system.cpu0.op_class::total                        23                       # Class of executed instruction
system.cpu0.workload.numSyscalls                    0                       # Number of system calls
system.cpu1.Branches                                3                       # Number of branches fetched
system.cpu1.committedInsts                         14                       # Number of instructions committed
system.cpu1.committedOps                           26                       # Number of ops (including micro ops) committed
system.cpu1.idle_fraction                           0                       # Percentage of idle cycles
system.cpu1.l2bus.snoop_filter.hit_multi_requests            3                       # Number of requests hitting in the snoop filter with multiple (>1) holders of the requested data.
system.cpu1.l2bus.snoop_filter.hit_multi_snoops            0                       # Number of snoops hitting in the snoop filter with multiple (>1) holders of the requested data.
system.cpu1.l2bus.snoop_filter.hit_single_requests         6238                       # Number of requests hitting in the snoop filter with a single holder of the requested data.
system.cpu1.l2bus.snoop_filter.hit_single_snoops            0                       # Number of snoops hitting in the snoop filter with a single holder of the requested data.
system.cpu1.l2bus.snoop_filter.tot_requests        13288                       # Total number of requests made to the snoop filter.
system.cpu1.l2bus.snoop_filter.tot_snoops            0                       # Total number of snoops made to the snoop filter.
system.cpu1.mmucache.mmubus.snoop_filter.hit_multi_requests            0                       # Number of requests hitting in the snoop filter with multiple (>1) holders of the requested data.
system.cpu1.mmucache.mmubus.snoop_filter.hit_multi_snoops            0                       # Number of snoops hitting in the snoop filter with multiple (>1) holders of the requested data.
system.cpu1.mmucache.mmubus.snoop_filter.hit_single_requests            0                       # Number of requests hitting in the snoop filter with a single holder of the requested data.
system.cpu1.mmucache.mmubus.snoop_filter.hit_single_snoops            0                       # Number of snoops hitting in the snoop filter with a single holder of the requested data.
system.cpu1.mmucache.mmubus.snoop_filter.tot_requests            0                       # Total number of requests made to the snoop filter.
system.cpu1.mmucache.mmubus.snoop_filter.tot_snoops            0                       # Total number of snoops made to the snoop filter.
system.cpu1.not_idle_fraction                       1                       # Percentage of non-idle cycles
system.cpu1.numCycles                              30                       # number of cpu cycles simulated
system.cpu1.numWorkItemsCompleted                   0                       # number of work items this cpu completed
system.cpu1.numWorkItemsStarted                     0                       # number of work items this cpu started
system.cpu1.num_busy_cycles                        30                       # Number of busy cycles
system.cpu1.num_cc_register_reads                  16                       # number of times the CC registers were read
system.cpu1.num_cc_register_writes                 10                       # number of times the CC registers were written
system.cpu1.num_conditional_control_insts            3                       # number of instructions that are conditional controls
system.cpu1.num_fp_alu_accesses                     0                       # Number of float alu accesses
system.cpu1.num_fp_insts                            0                       # number of float instructions
system.cpu1.num_fp_register_reads                   0                       # number of times the floating registers were read
system.cpu1.num_fp_register_writes                  0                       # number of times the floating registers were written
system.cpu1.num_func_calls                          0                       # number of times a function call or return occured
system.cpu1.num_idle_cycles                         0                       # Number of idle cycles
system.cpu1.num_int_alu_accesses                   26                       # Number of integer alu accesses
system.cpu1.num_int_insts                          26                       # number of integer instructions
system.cpu1.num_int_register_reads                 48                       # number of times the integer registers were read
system.cpu1.num_int_register_writes                22                       # number of times the integer registers were written
system.cpu1.num_load_insts                          6                       # Number of load instructions
system.cpu1.num_mem_refs                            7                       # number of memory refs
system.cpu1.num_store_insts                         1                       # Number of store instructions
system.cpu1.num_vec_alu_accesses                    0                       # Number of vector alu accesses
system.cpu1.num_vec_insts                           0                       # number of vector instructions
system.cpu1.num_vec_register_reads                  0                       # number of times the vector registers were read
system.cpu1.num_vec_register_writes                 0                       # number of times the vector registers were written
system.cpu1.op_class::No_OpClass                    0      0.00%      0.00% # Class of executed instruction
system.cpu1.op_class::IntAlu                       19     73.08%     73.08% # Class of executed instruction
system.cpu1.op_class::IntMult                       0      0.00%     73.08% # Class of executed instruction
system.cpu1.op_class::IntDiv                        0      0.00%     73.08% # Class of executed instruction
system.cpu1.op_class::FloatAdd                      0      0.00%     73.08% # Class of executed instruction
system.cpu1.op_class::FloatCmp                      0      0.00%     73.08% # Class of executed instruction
system.cpu1.op_class::FloatCvt                      0      0.00%     73.08% # Class of executed instruction
system.cpu1.op_class::FloatMult                     0      0.00%     73.08% # Class of executed instruction
system.cpu1.op_class::FloatMultAcc                  0      0.00%     73.08% # Class of executed instruction
system.cpu1.op_class::FloatDiv                      0      0.00%     73.08% # Class of executed instruction
system.cpu1.op_class::FloatMisc                     0      0.00%     73.08% # Class of executed instruction
system.cpu1.op_class::FloatSqrt                     0      0.00%     73.08% # Class of executed instruction
system.cpu1.op_class::SimdAdd                       0      0.00%     73.08% # Class of executed instruction
system.cpu1.op_class::SimdAddAcc                    0      0.00%     73.08% # Class of executed instruction
system.cpu1.op_class::SimdAlu                       0      0.00%     73.08% # Class of executed instruction
system.cpu1.op_class::SimdCmp                       0      0.00%     73.08% # Class of executed instruction
system.cpu1.op_class::SimdCvt                       0      0.00%     73.08% # Class of executed instruction
system.cpu1.op_class::SimdMisc                      0      0.00%     73.08% # Class of executed instruction
system.cpu1.op_class::SimdMult                      0      0.00%     73.08% # Class of executed instruction
system.cpu1.op_class::SimdMultAcc                   0      0.00%     73.08% # Class of executed instruction
system.cpu1.op_class::SimdShift                     0      0.00%     73.08% # Class of executed instruction
system.cpu1.op_class::SimdShiftAcc                  0      0.00%     73.08% # Class of executed instruction
system.cpu1.op_class::SimdDiv                       0      0.00%     73.08% # Class of executed instruction
system.cpu1.op_class::SimdSqrt                      0      0.00%     73.08% # Class of executed instruction
system.cpu1.op_class::SimdFloatAdd                  0      0.00%     73.08% # Class of executed instruction
system.cpu1.op_class::SimdFloatAlu                  0      0.00%     73.08% # Class of executed instruction
system.cpu1.op_class::SimdFloatCmp                  0      0.00%     73.08% # Class of executed instruction
system.cpu1.op_class::SimdFloatCvt                  0      0.00%     73.08% # Class of executed instruction
system.cpu1.op_class::SimdFloatDiv                  0      0.00%     73.08% # Class of executed instruction
system.cpu1.op_class::SimdFloatMisc                 0      0.00%     73.08% # Class of executed instruction
system.cpu1.op_class::SimdFloatMult                 0      0.00%     73.08% # Class of executed instruction
system.cpu1.op_class::SimdFloatMultAcc              0      0.00%     73.08% # Class of executed instruction
system.cpu1.op_class::SimdFloatSqrt                 0      0.00%     73.08% # Class of executed instruction
system.cpu1.op_class::SimdReduceAdd                 0      0.00%     73.08% # Class of executed instruction
system.cpu1.op_class::SimdReduceAlu                 0      0.00%     73.08% # Class of executed instruction
system.cpu1.op_class::SimdReduceCmp                 0      0.00%     73.08% # Class of executed instruction
system.cpu1.op_class::SimdFloatReduceAdd            0      0.00%     73.08% # Class of executed instruction
system.cpu1.op_class::SimdFloatReduceCmp            0      0.00%     73.08% # Class of executed instruction
system.cpu1.op_class::SimdAes                       0      0.00%     73.08% # Class of executed instruction
system.cpu1.op_class::SimdAesMix                    0      0.00%     73.08% # Class of executed instruction
system.cpu1.op_class::SimdSha1Hash                  0      0.00%     73.08% # Class of executed instruction
system.cpu1.op_class::SimdSha1Hash2                 0      0.00%     73.08% # Class of executed instruction
system.cpu1.op_class::SimdSha256Hash                0      0.00%     73.08% # Class of executed instruction
system.cpu1.op_class::SimdSha256Hash2               0      0.00%     73.08% # Class of executed instruction
system.cpu1.op_class::SimdShaSigma2                 0      0.00%     73.08% # Class of executed instruction
system.cpu1.op_class::SimdShaSigma3                 0      0.00%     73.08% # Class of executed instruction
system.cpu1.op_class::SimdPredAlu                   0      0.00%     73.08% # Class of executed instruction
system.cpu1.op_class::MemRead                       6     23.08%     96.15% # Class of executed instruction
system.cpu1.op_class::MemWrite                      1      3.85%    100.00% # Class of executed instruction
system.cpu1.op_class::FloatMemRead                  0      0.00%    100.00% # Class of executed instruction
system.cpu1.op_class::FloatMemWrite                 0      0.00%    100.00% # Class of executed instruction
system.cpu1.op_class::IprAccess                     0      0.00%    100.00% # Class of executed instruction
system.cpu1.op_class::InstPrefetch                  0      0.00%    100.00% # Class of executed instruction
system.cpu1.op_class::total                        26                       # Class of executed instruction
system.cpu1.workload.numSyscalls                    0                       # Number of system calls
system.cpu2.Branches                                3                       # Number of branches fetched
system.cpu2.committedInsts                         15                       # Number of instructions committed
system.cpu2.committedOps                           29                       # Number of ops (including micro ops) committed
system.cpu2.idle_fraction                           0                       # Percentage of idle cycles
system.cpu2.l2bus.snoop_filter.hit_multi_requests            2                       # Number of requests hitting in the snoop filter with multiple (>1) holders of the requested data.
system.cpu2.l2bus.snoop_filter.hit_multi_snoops            0                       # Number of snoops hitting in the snoop filter with multiple (>1) holders of the requested data.
system.cpu2.l2bus.snoop_filter.hit_single_requests        40849                       # Number of requests hitting in the snoop filter with a single holder of the requested data.
system.cpu2.l2bus.snoop_filter.hit_single_snoops          549                       # Number of snoops hitting in the snoop filter with a single holder of the requested data.
system.cpu2.l2bus.snoop_filter.tot_requests        82484                       # Total number of requests made to the snoop filter.
system.cpu2.l2bus.snoop_filter.tot_snoops          549                       # Total number of snoops made to the snoop filter.
system.cpu2.mmucache.mmubus.snoop_filter.hit_multi_requests            0                       # Number of requests hitting in the snoop filter with multiple (>1) holders of the requested data.
system.cpu2.mmucache.mmubus.snoop_filter.hit_multi_snoops            0                       # Number of snoops hitting in the snoop filter with multiple (>1) holders of the requested data.
system.cpu2.mmucache.mmubus.snoop_filter.hit_single_requests            0                       # Number of requests hitting in the snoop filter with a single holder of the requested data.
system.cpu2.mmucache.mmubus.snoop_filter.hit_single_snoops            0                       # Number of snoops hitting in the snoop filter with a single holder of the requested data.
system.cpu2.mmucache.mmubus.snoop_filter.tot_requests            0                       # Total number of requests made to the snoop filter.
system.cpu2.mmucache.mmubus.snoop_filter.tot_snoops            0                       # Total number of snoops made to the snoop filter.
system.cpu2.not_idle_fraction                       1                       # Percentage of non-idle cycles
system.cpu2.numCycles                              32                       # number of cpu cycles simulated
system.cpu2.numWorkItemsCompleted                   0                       # number of work items this cpu completed
system.cpu2.numWorkItemsStarted                     0                       # number of work items this cpu started
system.cpu2.num_busy_cycles                        32                       # Number of busy cycles
system.cpu2.num_cc_register_reads                  13                       # number of times the CC registers were read
system.cpu2.num_cc_register_writes                 19                       # number of times the CC registers were written
system.cpu2.num_conditional_control_insts            2                       # number of instructions that are conditional controls
system.cpu2.num_fp_alu_accesses                     0                       # Number of float alu accesses
system.cpu2.num_fp_insts                            0                       # number of float instructions
system.cpu2.num_fp_register_reads                   0                       # number of times the floating registers were read
system.cpu2.num_fp_register_writes                  0                       # number of times the floating registers were written
system.cpu2.num_func_calls                          0                       # number of times a function call or return occured
system.cpu2.num_idle_cycles                         0                       # Number of idle cycles
system.cpu2.num_int_alu_accesses                   29                       # Number of integer alu accesses
system.cpu2.num_int_insts                          29                       # number of integer instructions
system.cpu2.num_int_register_reads                 54                       # number of times the integer registers were read
system.cpu2.num_int_register_writes                26                       # number of times the integer registers were written
system.cpu2.num_load_insts                          3                       # Number of load instructions
system.cpu2.num_mem_refs                            4                       # number of memory refs
system.cpu2.num_store_insts                         1                       # Number of store instructions
system.cpu2.num_vec_alu_accesses                    0                       # Number of vector alu accesses
system.cpu2.num_vec_insts                           0                       # number of vector instructions
system.cpu2.num_vec_register_reads                  0                       # number of times the vector registers were read
system.cpu2.num_vec_register_writes                 0                       # number of times the vector registers were written
system.cpu2.op_class::No_OpClass                    0      0.00%      0.00% # Class of executed instruction
system.cpu2.op_class::IntAlu                       24     82.76%     82.76% # Class of executed instruction
system.cpu2.op_class::IntMult                       1      3.45%     86.21% # Class of executed instruction
system.cpu2.op_class::IntDiv                        0      0.00%     86.21% # Class of executed instruction
system.cpu2.op_class::FloatAdd                      0      0.00%     86.21% # Class of executed instruction
system.cpu2.op_class::FloatCmp                      0      0.00%     86.21% # Class of executed instruction
system.cpu2.op_class::FloatCvt                      0      0.00%     86.21% # Class of executed instruction
system.cpu2.op_class::FloatMult                     0      0.00%     86.21% # Class of executed instruction
system.cpu2.op_class::FloatMultAcc                  0      0.00%     86.21% # Class of executed instruction
system.cpu2.op_class::FloatDiv                      0      0.00%     86.21% # Class of executed instruction
system.cpu2.op_class::FloatMisc                     0      0.00%     86.21% # Class of executed instruction
system.cpu2.op_class::FloatSqrt                     0      0.00%     86.21% # Class of executed instruction
system.cpu2.op_class::SimdAdd                       0      0.00%     86.21% # Class of executed instruction
system.cpu2.op_class::SimdAddAcc                    0      0.00%     86.21% # Class of executed instruction
system.cpu2.op_class::SimdAlu                       0      0.00%     86.21% # Class of executed instruction
system.cpu2.op_class::SimdCmp                       0      0.00%     86.21% # Class of executed instruction
system.cpu2.op_class::SimdCvt                       0      0.00%     86.21% # Class of executed instruction
system.cpu2.op_class::SimdMisc                      0      0.00%     86.21% # Class of executed instruction
system.cpu2.op_class::SimdMult                      0      0.00%     86.21% # Class of executed instruction
system.cpu2.op_class::SimdMultAcc                   0      0.00%     86.21% # Class of executed instruction
system.cpu2.op_class::SimdShift                     0      0.00%     86.21% # Class of executed instruction
system.cpu2.op_class::SimdShiftAcc                  0      0.00%     86.21% # Class of executed instruction
system.cpu2.op_class::SimdDiv                       0      0.00%     86.21% # Class of executed instruction
system.cpu2.op_class::SimdSqrt                      0      0.00%     86.21% # Class of executed instruction
system.cpu2.op_class::SimdFloatAdd                  0      0.00%     86.21% # Class of executed instruction
system.cpu2.op_class::SimdFloatAlu                  0      0.00%     86.21% # Class of executed instruction
system.cpu2.op_class::SimdFloatCmp                  0      0.00%     86.21% # Class of executed instruction
system.cpu2.op_class::SimdFloatCvt                  0      0.00%     86.21% # Class of executed instruction
system.cpu2.op_class::SimdFloatDiv                  0      0.00%     86.21% # Class of executed instruction
system.cpu2.op_class::SimdFloatMisc                 0      0.00%     86.21% # Class of executed instruction
system.cpu2.op_class::SimdFloatMult                 0      0.00%     86.21% # Class of executed instruction
system.cpu2.op_class::SimdFloatMultAcc              0      0.00%     86.21% # Class of executed instruction
system.cpu2.op_class::SimdFloatSqrt                 0      0.00%     86.21% # Class of executed instruction
system.cpu2.op_class::SimdReduceAdd                 0      0.00%     86.21% # Class of executed instruction
system.cpu2.op_class::SimdReduceAlu                 0      0.00%     86.21% # Class of executed instruction
system.cpu2.op_class::SimdReduceCmp                 0      0.00%     86.21% # Class of executed instruction
system.cpu2.op_class::SimdFloatReduceAdd            0      0.00%     86.21% # Class of executed instruction
system.cpu2.op_class::SimdFloatReduceCmp            0      0.00%     86.21% # Class of executed instruction
system.cpu2.op_class::SimdAes                       0      0.00%     86.21% # Class of executed instruction
system.cpu2.op_class::SimdAesMix                    0      0.00%     86.21% # Class of executed instruction
system.cpu2.op_class::SimdSha1Hash                  0      0.00%     86.21% # Class of executed instruction
system.cpu2.op_class::SimdSha1Hash2                 0      0.00%     86.21% # Class of executed instruction
system.cpu2.op_class::SimdSha256Hash                0      0.00%     86.21% # Class of executed instruction
system.cpu2.op_class::SimdSha256Hash2               0      0.00%     86.21% # Class of executed instruction
system.cpu2.op_class::SimdShaSigma2                 0      0.00%     86.21% # Class of executed instruction
system.cpu2.op_class::SimdShaSigma3                 0      0.00%     86.21% # Class of executed instruction
system.cpu2.op_class::SimdPredAlu                   0      0.00%     86.21% # Class of executed instruction
system.cpu2.op_class::MemRead                       3     10.34%     96.55% # Class of executed instruction
system.cpu2.op_class::MemWrite                      1      3.45%    100.00% # Class of executed instruction
system.cpu2.op_class::FloatMemRead                  0      0.00%    100.00% # Class of executed instruction
system.cpu2.op_class::FloatMemWrite                 0      0.00%    100.00% # Class of executed instruction
system.cpu2.op_class::IprAccess                     0      0.00%    100.00% # Class of executed instruction
system.cpu2.op_class::InstPrefetch                  0      0.00%    100.00% # Class of executed instruction
system.cpu2.op_class::total                        29                       # Class of executed instruction
system.cpu2.workload.numSyscalls                    0                       # Number of system calls
system.cpu3.Branches                                1                       # Number of branches fetched
system.cpu3.committedInsts                         16                       # Number of instructions committed
system.cpu3.committedOps                           22                       # Number of ops (including micro ops) committed
system.cpu3.idle_fraction                           0                       # Percentage of idle cycles
system.cpu3.l2bus.snoop_filter.hit_multi_requests            2                       # Number of requests hitting in the snoop filter with multiple (>1) holders of the requested data.
system.cpu3.l2bus.snoop_filter.hit_multi_snoops            0                       # Number of snoops hitting in the snoop filter with multiple (>1) holders of the requested data.
system.cpu3.l2bus.snoop_filter.hit_single_requests      1691443                       # Number of requests hitting in the snoop filter with a single holder of the requested data.
system.cpu3.l2bus.snoop_filter.hit_single_snoops         2817                       # Number of snoops hitting in the snoop filter with a single holder of the requested data.
system.cpu3.l2bus.snoop_filter.tot_requests      3300308                       # Total number of requests made to the snoop filter.
system.cpu3.l2bus.snoop_filter.tot_snoops         2817                       # Total number of snoops made to the snoop filter.
system.cpu3.mmucache.mmubus.snoop_filter.hit_multi_requests            0                       # Number of requests hitting in the snoop filter with multiple (>1) holders of the requested data.
system.cpu3.mmucache.mmubus.snoop_filter.hit_multi_snoops            0                       # Number of snoops hitting in the snoop filter with multiple (>1) holders of the requested data.
system.cpu3.mmucache.mmubus.snoop_filter.hit_single_requests            0                       # Number of requests hitting in the snoop filter with a single holder of the requested data.
system.cpu3.mmucache.mmubus.snoop_filter.hit_single_snoops            0                       # Number of snoops hitting in the snoop filter with a single holder of the requested data.
system.cpu3.mmucache.mmubus.snoop_filter.tot_requests            0                       # Total number of requests made to the snoop filter.
system.cpu3.mmucache.mmubus.snoop_filter.tot_snoops            0                       # Total number of snoops made to the snoop filter.
system.cpu3.not_idle_fraction                       1                       # Percentage of non-idle cycles
system.cpu3.numCycles                              30                       # number of cpu cycles simulated
system.cpu3.numWorkItemsCompleted                   0                       # number of work items this cpu completed
system.cpu3.numWorkItemsStarted                     0                       # number of work items this cpu started
system.cpu3.num_busy_cycles                        30                       # Number of busy cycles
system.cpu3.num_cc_register_reads                   5                       # number of times the CC registers were read
system.cpu3.num_cc_register_writes                  6                       # number of times the CC registers were written
system.cpu3.num_conditional_control_insts            1                       # number of instructions that are conditional controls
system.cpu3.num_fp_alu_accesses                    13                       # Number of float alu accesses
system.cpu3.num_fp_insts                           13                       # number of float instructions
system.cpu3.num_fp_register_reads                  23                       # number of times the floating registers were read
system.cpu3.num_fp_register_writes                 12                       # number of times the floating registers were written
system.cpu3.num_func_calls                          0                       # number of times a function call or return occured
system.cpu3.num_idle_cycles                         0                       # Number of idle cycles
system.cpu3.num_int_alu_accesses                   14                       # Number of integer alu accesses
system.cpu3.num_int_insts                          14                       # number of integer instructions
system.cpu3.num_int_register_reads                 31                       # number of times the integer registers were read
system.cpu3.num_int_register_writes                 8                       # number of times the integer registers were written
system.cpu3.num_load_insts                          6                       # Number of load instructions
system.cpu3.num_mem_refs                            7                       # number of memory refs
system.cpu3.num_store_insts                         1                       # Number of store instructions
system.cpu3.num_vec_alu_accesses                    0                       # Number of vector alu accesses
system.cpu3.num_vec_insts                           0                       # number of vector instructions
system.cpu3.num_vec_register_reads                  0                       # number of times the vector registers were read
system.cpu3.num_vec_register_writes                 0                       # number of times the vector registers were written
system.cpu3.op_class::No_OpClass                    0      0.00%      0.00% # Class of executed instruction
system.cpu3.op_class::IntAlu                        9     40.91%     40.91% # Class of executed instruction
system.cpu3.op_class::IntMult                       0      0.00%     40.91% # Class of executed instruction
system.cpu3.op_class::IntDiv                        0      0.00%     40.91% # Class of executed instruction
system.cpu3.op_class::FloatAdd                      0      0.00%     40.91% # Class of executed instruction
system.cpu3.op_class::FloatCmp                      0      0.00%     40.91% # Class of executed instruction
system.cpu3.op_class::FloatCvt                      0      0.00%     40.91% # Class of executed instruction
system.cpu3.op_class::FloatMult                     0      0.00%     40.91% # Class of executed instruction
system.cpu3.op_class::FloatMultAcc                  0      0.00%     40.91% # Class of executed instruction
system.cpu3.op_class::FloatDiv                      0      0.00%     40.91% # Class of executed instruction
system.cpu3.op_class::FloatMisc                     0      0.00%     40.91% # Class of executed instruction
system.cpu3.op_class::FloatSqrt                     0      0.00%     40.91% # Class of executed instruction
system.cpu3.op_class::SimdAdd                       0      0.00%     40.91% # Class of executed instruction
system.cpu3.op_class::SimdAddAcc                    0      0.00%     40.91% # Class of executed instruction
system.cpu3.op_class::SimdAlu                       0      0.00%     40.91% # Class of executed instruction
system.cpu3.op_class::SimdCmp                       0      0.00%     40.91% # Class of executed instruction
system.cpu3.op_class::SimdCvt                       0      0.00%     40.91% # Class of executed instruction
system.cpu3.op_class::SimdMisc                      0      0.00%     40.91% # Class of executed instruction
system.cpu3.op_class::SimdMult                      0      0.00%     40.91% # Class of executed instruction
system.cpu3.op_class::SimdMultAcc                   0      0.00%     40.91% # Class of executed instruction
system.cpu3.op_class::SimdShift                     0      0.00%     40.91% # Class of executed instruction
system.cpu3.op_class::SimdShiftAcc                  0      0.00%     40.91% # Class of executed instruction
system.cpu3.op_class::SimdDiv                       0      0.00%     40.91% # Class of executed instruction
system.cpu3.op_class::SimdSqrt                      0      0.00%     40.91% # Class of executed instruction
system.cpu3.op_class::SimdFloatAdd                  4     18.18%     59.09% # Class of executed instruction
system.cpu3.op_class::SimdFloatAlu                  0      0.00%     59.09% # Class of executed instruction
system.cpu3.op_class::SimdFloatCmp                  0      0.00%     59.09% # Class of executed instruction
system.cpu3.op_class::SimdFloatCvt                  0      0.00%     59.09% # Class of executed instruction
system.cpu3.op_class::SimdFloatDiv                  0      0.00%     59.09% # Class of executed instruction
system.cpu3.op_class::SimdFloatMisc                 0      0.00%     59.09% # Class of executed instruction
system.cpu3.op_class::SimdFloatMult                 2      9.09%     68.18% # Class of executed instruction
system.cpu3.op_class::SimdFloatMultAcc              0      0.00%     68.18% # Class of executed instruction
system.cpu3.op_class::SimdFloatSqrt                 0      0.00%     68.18% # Class of executed instruction
system.cpu3.op_class::SimdReduceAdd                 0      0.00%     68.18% # Class of executed instruction
system.cpu3.op_class::SimdReduceAlu                 0      0.00%     68.18% # Class of executed instruction
system.cpu3.op_class::SimdReduceCmp                 0      0.00%     68.18% # Class of executed instruction
system.cpu3.op_class::SimdFloatReduceAdd            0      0.00%     68.18% # Class of executed instruction
system.cpu3.op_class::SimdFloatReduceCmp            0      0.00%     68.18% # Class of executed instruction
system.cpu3.op_class::SimdAes                       0      0.00%     68.18% # Class of executed instruction
system.cpu3.op_class::SimdAesMix                    0      0.00%     68.18% # Class of executed instruction
system.cpu3.op_class::SimdSha1Hash                  0      0.00%     68.18% # Class of executed instruction
system.cpu3.op_class::SimdSha1Hash2                 0      0.00%     68.18% # Class of executed instruction
system.cpu3.op_class::SimdSha256Hash                0      0.00%     68.18% # Class of executed instruction
system.cpu3.op_class::SimdSha256Hash2               0      0.00%     68.18% # Class of executed instruction
system.cpu3.op_class::SimdShaSigma2                 0      0.00%     68.18% # Class of executed instruction
system.cpu3.op_class::SimdShaSigma3                 0      0.00%     68.18% # Class of executed instruction
system.cpu3.op_class::SimdPredAlu                   0      0.00%     68.18% # Class of executed instruction
system.cpu3.op_class::MemRead                       2      9.09%     77.27% # Class of executed instruction
system.cpu3.op_class::MemWrite                      0      0.00%     77.27% # Class of executed instruction
system.cpu3.op_class::FloatMemRead                  4     18.18%     95.45% # Class of executed instruction
system.cpu3.op_class::FloatMemWrite                 1      4.55%    100.00% # Class of executed instruction
system.cpu3.op_class::IprAccess                     0      0.00%    100.00% # Class of executed instruction
system.cpu3.op_class::InstPrefetch                  0      0.00%    100.00% # Class of executed instruction
system.cpu3.op_class::total                        22                       # Class of executed instruction
system.cpu3.workload.numSyscalls                    0                       # Number of system calls
system.l3bus.snoop_filter.hit_multi_requests            0                       # Number of requests hitting in the snoop filter with multiple (>1) holders of the requested data.
system.l3bus.snoop_filter.hit_multi_snoops            0                       # Number of snoops hitting in the snoop filter with multiple (>1) holders of the requested data.
system.l3bus.snoop_filter.hit_single_requests      1270504                       # Number of requests hitting in the snoop filter with a single holder of the requested data.
system.l3bus.snoop_filter.hit_single_snoops            0                       # Number of snoops hitting in the snoop filter with a single holder of the requested data.
system.l3bus.snoop_filter.tot_requests        2555916                       # Total number of requests made to the snoop filter.
system.l3bus.snoop_filter.tot_snoops                0                       # Total number of snoops made to the snoop filter.
system.membus.snoop_filter.hit_multi_requests            0                       # Number of requests hitting in the snoop filter with multiple (>1) holders of the requested data.
system.membus.snoop_filter.hit_multi_snoops            0                       # Number of snoops hitting in the snoop filter with multiple (>1) holders of the requested data.
system.membus.snoop_filter.hit_single_requests       598417                       # Number of requests hitting in the snoop filter with a single holder of the requested data.
system.membus.snoop_filter.hit_single_snoops            0                       # Number of snoops hitting in the snoop filter with a single holder of the requested data.
system.membus.snoop_filter.tot_requests       1274728                       # Total number of requests made to the snoop filter.
system.membus.snoop_filter.tot_snoops               0                       # Total number of snoops made to the snoop filter.
system.switch_cpus0.cc_regfile_reads        168206843                       # number of cc regfile reads
system.switch_cpus0.cc_regfile_writes       114237745                       # number of cc regfile writes
system.switch_cpus0.committedInsts          127119540                       # Number of Instructions Simulated
system.switch_cpus0.committedOps            237417734                       # Number of Ops (including micro ops) Simulated
system.switch_cpus0.cpi                      0.945785                       # CPI: Cycles Per Instruction
system.switch_cpus0.cpi_total                0.945785                       # CPI: Total CPI of All Threads
system.switch_cpus0.fp_regfile_reads           857007                       # number of floating regfile reads
system.switch_cpus0.fp_regfile_writes          653360                       # number of floating regfile writes
system.switch_cpus0.idleCycles                  90973                       # Total number of cycles that the CPU has spent unscheduled due to idling
system.switch_cpus0.iew.branchMispredicts      2914266                       # Number of branch mispredicts detected at execute
system.switch_cpus0.iew.exec_branches        30597234                       # Number of branches executed
system.switch_cpus0.iew.exec_nop                    0                       # number of nop insts executed
system.switch_cpus0.iew.exec_rate            2.761062                       # Inst execution rate
system.switch_cpus0.iew.exec_refs            66317492                       # number of memory reference insts executed
system.switch_cpus0.iew.exec_stores          16362223                       # Number of stores executed
system.switch_cpus0.iew.exec_swp                    0                       # number of swp insts executed
system.switch_cpus0.iew.iewBlockCycles       20516658                       # Number of cycles IEW is blocking
system.switch_cpus0.iew.iewDispLoadInsts     61795462                       # Number of dispatched load instructions
system.switch_cpus0.iew.iewDispNonSpecInsts            3                       # Number of dispatched non-speculative instructions
system.switch_cpus0.iew.iewDispSquashedInsts        76692                       # Number of squashed instructions skipped by dispatch
system.switch_cpus0.iew.iewDispStoreInsts     20129137                       # Number of dispatched store instructions
system.switch_cpus0.iew.iewDispatchedInsts    403682132                       # Number of instructions dispatched to IQ
system.switch_cpus0.iew.iewExecLoadInsts     49955269                       # Number of load instructions executed
system.switch_cpus0.iew.iewExecSquashedInsts      5499594                       # Number of squashed instructions skipped in execute
system.switch_cpus0.iew.iewExecutedInsts    331956415                       # Number of executed instructions
system.switch_cpus0.iew.iewIQFullEvents          6450                       # Number of times the IQ has become full, causing a stall
system.switch_cpus0.iew.iewIdleCycles               0                       # Number of cycles IEW is idle
system.switch_cpus0.iew.iewLSQFullEvents        20139                       # Number of times the LSQ has become full, causing a stall
system.switch_cpus0.iew.iewSquashCycles       2583723                       # Number of cycles IEW is squashing
system.switch_cpus0.iew.iewUnblockCycles        28049                       # Number of cycles IEW is unblocking
system.switch_cpus0.iew.memOrderViolationEvents        19594                       # Number of memory order violations
system.switch_cpus0.iew.predictedNotTakenIncorrect      1611075                       # Number of branches that were predicted not taken incorrectly
system.switch_cpus0.iew.predictedTakenIncorrect      1303191                       # Number of branches that were predicted taken incorrectly
system.switch_cpus0.iew.wb_consumers        458959339                       # num instructions consuming a value
system.switch_cpus0.iew.wb_count            329588910                       # cumulative count of insts written-back
system.switch_cpus0.iew.wb_fanout            0.559791                       # average fanout of values written-back
system.switch_cpus0.iew.wb_producers        256921446                       # num instructions producing a value
system.switch_cpus0.iew.wb_rate              2.741370                       # insts written-back per cycle
system.switch_cpus0.iew.wb_sent             331334494                       # cumulative count of insts sent to commit
system.switch_cpus0.int_regfile_reads       514313459                       # number of integer regfile reads
system.switch_cpus0.int_regfile_writes      294440937                       # number of integer regfile writes
system.switch_cpus0.ipc                      1.057322                       # IPC: Instructions Per Cycle
system.switch_cpus0.ipc_total                1.057322                       # IPC: Total IPC of All Threads
system.switch_cpus0.iq.FU_type_0::No_OpClass      1794849      0.53%      0.53% # Type of FU issued
system.switch_cpus0.iq.FU_type_0::IntAlu    260393516     77.16%     77.70% # Type of FU issued
system.switch_cpus0.iq.FU_type_0::IntMult      1644707      0.49%     78.18% # Type of FU issued
system.switch_cpus0.iq.FU_type_0::IntDiv      4740293      1.40%     79.59% # Type of FU issued
system.switch_cpus0.iq.FU_type_0::FloatAdd        28495      0.01%     79.60% # Type of FU issued
system.switch_cpus0.iq.FU_type_0::FloatCmp            0      0.00%     79.60% # Type of FU issued
system.switch_cpus0.iq.FU_type_0::FloatCvt            0      0.00%     79.60% # Type of FU issued
system.switch_cpus0.iq.FU_type_0::FloatMult            0      0.00%     79.60% # Type of FU issued
system.switch_cpus0.iq.FU_type_0::FloatMultAcc            0      0.00%     79.60% # Type of FU issued
system.switch_cpus0.iq.FU_type_0::FloatDiv            0      0.00%     79.60% # Type of FU issued
system.switch_cpus0.iq.FU_type_0::FloatMisc            0      0.00%     79.60% # Type of FU issued
system.switch_cpus0.iq.FU_type_0::FloatSqrt            0      0.00%     79.60% # Type of FU issued
system.switch_cpus0.iq.FU_type_0::SimdAdd            0      0.00%     79.60% # Type of FU issued
system.switch_cpus0.iq.FU_type_0::SimdAddAcc            0      0.00%     79.60% # Type of FU issued
system.switch_cpus0.iq.FU_type_0::SimdAlu        27061      0.01%     79.60% # Type of FU issued
system.switch_cpus0.iq.FU_type_0::SimdCmp            0      0.00%     79.60% # Type of FU issued
system.switch_cpus0.iq.FU_type_0::SimdCvt            0      0.00%     79.60% # Type of FU issued
system.switch_cpus0.iq.FU_type_0::SimdMisc        59261      0.02%     79.62% # Type of FU issued
system.switch_cpus0.iq.FU_type_0::SimdMult            0      0.00%     79.62% # Type of FU issued
system.switch_cpus0.iq.FU_type_0::SimdMultAcc            0      0.00%     79.62% # Type of FU issued
system.switch_cpus0.iq.FU_type_0::SimdShift            0      0.00%     79.62% # Type of FU issued
system.switch_cpus0.iq.FU_type_0::SimdShiftAcc            0      0.00%     79.62% # Type of FU issued
system.switch_cpus0.iq.FU_type_0::SimdDiv            0      0.00%     79.62% # Type of FU issued
system.switch_cpus0.iq.FU_type_0::SimdSqrt            0      0.00%     79.62% # Type of FU issued
system.switch_cpus0.iq.FU_type_0::SimdFloatAdd        56331      0.02%     79.64% # Type of FU issued
system.switch_cpus0.iq.FU_type_0::SimdFloatAlu            0      0.00%     79.64% # Type of FU issued
system.switch_cpus0.iq.FU_type_0::SimdFloatCmp            0      0.00%     79.64% # Type of FU issued
system.switch_cpus0.iq.FU_type_0::SimdFloatCvt       125966      0.04%     79.68% # Type of FU issued
system.switch_cpus0.iq.FU_type_0::SimdFloatDiv         1459      0.00%     79.68% # Type of FU issued
system.switch_cpus0.iq.FU_type_0::SimdFloatMisc            0      0.00%     79.68% # Type of FU issued
system.switch_cpus0.iq.FU_type_0::SimdFloatMult            0      0.00%     79.68% # Type of FU issued
system.switch_cpus0.iq.FU_type_0::SimdFloatMultAcc            0      0.00%     79.68% # Type of FU issued
system.switch_cpus0.iq.FU_type_0::SimdFloatSqrt            0      0.00%     79.68% # Type of FU issued
system.switch_cpus0.iq.FU_type_0::SimdReduceAdd            0      0.00%     79.68% # Type of FU issued
system.switch_cpus0.iq.FU_type_0::SimdReduceAlu            0      0.00%     79.68% # Type of FU issued
system.switch_cpus0.iq.FU_type_0::SimdReduceCmp            0      0.00%     79.68% # Type of FU issued
system.switch_cpus0.iq.FU_type_0::SimdFloatReduceAdd            0      0.00%     79.68% # Type of FU issued
system.switch_cpus0.iq.FU_type_0::SimdFloatReduceCmp            0      0.00%     79.68% # Type of FU issued
system.switch_cpus0.iq.FU_type_0::SimdAes            0      0.00%     79.68% # Type of FU issued
system.switch_cpus0.iq.FU_type_0::SimdAesMix            0      0.00%     79.68% # Type of FU issued
system.switch_cpus0.iq.FU_type_0::SimdSha1Hash            0      0.00%     79.68% # Type of FU issued
system.switch_cpus0.iq.FU_type_0::SimdSha1Hash2            0      0.00%     79.68% # Type of FU issued
system.switch_cpus0.iq.FU_type_0::SimdSha256Hash            0      0.00%     79.68% # Type of FU issued
system.switch_cpus0.iq.FU_type_0::SimdSha256Hash2            0      0.00%     79.68% # Type of FU issued
system.switch_cpus0.iq.FU_type_0::SimdShaSigma2            0      0.00%     79.68% # Type of FU issued
system.switch_cpus0.iq.FU_type_0::SimdShaSigma3            0      0.00%     79.68% # Type of FU issued
system.switch_cpus0.iq.FU_type_0::SimdPredAlu            0      0.00%     79.68% # Type of FU issued
system.switch_cpus0.iq.FU_type_0::MemRead     51286798     15.20%     94.87% # Type of FU issued
system.switch_cpus0.iq.FU_type_0::MemWrite     16561630      4.91%     99.78% # Type of FU issued
system.switch_cpus0.iq.FU_type_0::FloatMemRead       433563      0.13%     99.91% # Type of FU issued
system.switch_cpus0.iq.FU_type_0::FloatMemWrite       302085      0.09%    100.00% # Type of FU issued
system.switch_cpus0.iq.FU_type_0::IprAccess            0      0.00%    100.00% # Type of FU issued
system.switch_cpus0.iq.FU_type_0::InstPrefetch            0      0.00%    100.00% # Type of FU issued
system.switch_cpus0.iq.FU_type_0::total     337456014                       # Type of FU issued
system.switch_cpus0.iq.fp_alu_accesses        1055737                       # Number of floating point alu accesses
system.switch_cpus0.iq.fp_inst_queue_reads      2102070                       # Number of floating instruction queue reads
system.switch_cpus0.iq.fp_inst_queue_wakeup_accesses      1013721                       # Number of floating instruction queue wakeup accesses
system.switch_cpus0.iq.fp_inst_queue_writes      1217714                       # Number of floating instruction queue writes
system.switch_cpus0.iq.fu_busy_cnt            5745298                       # FU busy when requested
system.switch_cpus0.iq.fu_busy_rate          0.017025                       # FU busy rate (busy events/executed inst)
system.switch_cpus0.iq.fu_full::No_OpClass            0      0.00%      0.00% # attempts to use FU when none available
system.switch_cpus0.iq.fu_full::IntAlu        4851552     84.44%     84.44% # attempts to use FU when none available
system.switch_cpus0.iq.fu_full::IntMult             0      0.00%     84.44% # attempts to use FU when none available
system.switch_cpus0.iq.fu_full::IntDiv              0      0.00%     84.44% # attempts to use FU when none available
system.switch_cpus0.iq.fu_full::FloatAdd            0      0.00%     84.44% # attempts to use FU when none available
system.switch_cpus0.iq.fu_full::FloatCmp            0      0.00%     84.44% # attempts to use FU when none available
system.switch_cpus0.iq.fu_full::FloatCvt            0      0.00%     84.44% # attempts to use FU when none available
system.switch_cpus0.iq.fu_full::FloatMult            0      0.00%     84.44% # attempts to use FU when none available
system.switch_cpus0.iq.fu_full::FloatMultAcc            0      0.00%     84.44% # attempts to use FU when none available
system.switch_cpus0.iq.fu_full::FloatDiv            0      0.00%     84.44% # attempts to use FU when none available
system.switch_cpus0.iq.fu_full::FloatMisc            0      0.00%     84.44% # attempts to use FU when none available
system.switch_cpus0.iq.fu_full::FloatSqrt            0      0.00%     84.44% # attempts to use FU when none available
system.switch_cpus0.iq.fu_full::SimdAdd             0      0.00%     84.44% # attempts to use FU when none available
system.switch_cpus0.iq.fu_full::SimdAddAcc            0      0.00%     84.44% # attempts to use FU when none available
system.switch_cpus0.iq.fu_full::SimdAlu             0      0.00%     84.44% # attempts to use FU when none available
system.switch_cpus0.iq.fu_full::SimdCmp             0      0.00%     84.44% # attempts to use FU when none available
system.switch_cpus0.iq.fu_full::SimdCvt             0      0.00%     84.44% # attempts to use FU when none available
system.switch_cpus0.iq.fu_full::SimdMisc            0      0.00%     84.44% # attempts to use FU when none available
system.switch_cpus0.iq.fu_full::SimdMult            0      0.00%     84.44% # attempts to use FU when none available
system.switch_cpus0.iq.fu_full::SimdMultAcc            0      0.00%     84.44% # attempts to use FU when none available
system.switch_cpus0.iq.fu_full::SimdShift            0      0.00%     84.44% # attempts to use FU when none available
system.switch_cpus0.iq.fu_full::SimdShiftAcc            0      0.00%     84.44% # attempts to use FU when none available
system.switch_cpus0.iq.fu_full::SimdDiv             0      0.00%     84.44% # attempts to use FU when none available
system.switch_cpus0.iq.fu_full::SimdSqrt            0      0.00%     84.44% # attempts to use FU when none available
system.switch_cpus0.iq.fu_full::SimdFloatAdd            0      0.00%     84.44% # attempts to use FU when none available
system.switch_cpus0.iq.fu_full::SimdFloatAlu            0      0.00%     84.44% # attempts to use FU when none available
system.switch_cpus0.iq.fu_full::SimdFloatCmp            0      0.00%     84.44% # attempts to use FU when none available
system.switch_cpus0.iq.fu_full::SimdFloatCvt            0      0.00%     84.44% # attempts to use FU when none available
system.switch_cpus0.iq.fu_full::SimdFloatDiv            0      0.00%     84.44% # attempts to use FU when none available
system.switch_cpus0.iq.fu_full::SimdFloatMisc            0      0.00%     84.44% # attempts to use FU when none available
system.switch_cpus0.iq.fu_full::SimdFloatMult            0      0.00%     84.44% # attempts to use FU when none available
system.switch_cpus0.iq.fu_full::SimdFloatMultAcc            0      0.00%     84.44% # attempts to use FU when none available
system.switch_cpus0.iq.fu_full::SimdFloatSqrt            0      0.00%     84.44% # attempts to use FU when none available
system.switch_cpus0.iq.fu_full::SimdReduceAdd            0      0.00%     84.44% # attempts to use FU when none available
system.switch_cpus0.iq.fu_full::SimdReduceAlu            0      0.00%     84.44% # attempts to use FU when none available
system.switch_cpus0.iq.fu_full::SimdReduceCmp            0      0.00%     84.44% # attempts to use FU when none available
system.switch_cpus0.iq.fu_full::SimdFloatReduceAdd            0      0.00%     84.44% # attempts to use FU when none available
system.switch_cpus0.iq.fu_full::SimdFloatReduceCmp            0      0.00%     84.44% # attempts to use FU when none available
system.switch_cpus0.iq.fu_full::SimdAes             0      0.00%     84.44% # attempts to use FU when none available
system.switch_cpus0.iq.fu_full::SimdAesMix            0      0.00%     84.44% # attempts to use FU when none available
system.switch_cpus0.iq.fu_full::SimdSha1Hash            0      0.00%     84.44% # attempts to use FU when none available
system.switch_cpus0.iq.fu_full::SimdSha1Hash2            0      0.00%     84.44% # attempts to use FU when none available
system.switch_cpus0.iq.fu_full::SimdSha256Hash            0      0.00%     84.44% # attempts to use FU when none available
system.switch_cpus0.iq.fu_full::SimdSha256Hash2            0      0.00%     84.44% # attempts to use FU when none available
system.switch_cpus0.iq.fu_full::SimdShaSigma2            0      0.00%     84.44% # attempts to use FU when none available
system.switch_cpus0.iq.fu_full::SimdShaSigma3            0      0.00%     84.44% # attempts to use FU when none available
system.switch_cpus0.iq.fu_full::SimdPredAlu            0      0.00%     84.44% # attempts to use FU when none available
system.switch_cpus0.iq.fu_full::MemRead        703746     12.25%     96.69% # attempts to use FU when none available
system.switch_cpus0.iq.fu_full::MemWrite       178462      3.11%     99.80% # attempts to use FU when none available
system.switch_cpus0.iq.fu_full::FloatMemRead         4702      0.08%     99.88% # attempts to use FU when none available
system.switch_cpus0.iq.fu_full::FloatMemWrite         6836      0.12%    100.00% # attempts to use FU when none available
system.switch_cpus0.iq.fu_full::IprAccess            0      0.00%    100.00% # attempts to use FU when none available
system.switch_cpus0.iq.fu_full::InstPrefetch            0      0.00%    100.00% # attempts to use FU when none available
system.switch_cpus0.iq.int_alu_accesses     340350726                       # Number of integer alu accesses
system.switch_cpus0.iq.int_inst_queue_reads    800308853                       # Number of integer instruction queue reads
system.switch_cpus0.iq.int_inst_queue_wakeup_accesses    328575189                       # Number of integer instruction queue wakeup accesses
system.switch_cpus0.iq.int_inst_queue_writes    568747479                       # Number of integer instruction queue writes
system.switch_cpus0.iq.iqInstsAdded         403682123                       # Number of instructions added to the IQ (excludes non-spec)
system.switch_cpus0.iq.iqInstsIssued        337456014                       # Number of instructions issued
system.switch_cpus0.iq.iqNonSpecInstsAdded            9                       # Number of non-speculative instructions added to the IQ
system.switch_cpus0.iq.iqSquashedInstsExamined    166264294                       # Number of squashed instructions iterated over during squash; mainly for profiling
system.switch_cpus0.iq.iqSquashedInstsIssued      1616781                       # Number of squashed instructions issued
system.switch_cpus0.iq.iqSquashedNonSpecRemoved            9                       # Number of squashed non-spec instructions that were removed
system.switch_cpus0.iq.iqSquashedOperandsExamined    243294153                       # Number of squashed operands that are examined and possibly removed from graph
system.switch_cpus0.iq.issued_per_cycle::samples    120136821                       # Number of insts issued each cycle
system.switch_cpus0.iq.issued_per_cycle::mean     2.808931                       # Number of insts issued each cycle
system.switch_cpus0.iq.issued_per_cycle::stdev     2.591398                       # Number of insts issued each cycle
system.switch_cpus0.iq.issued_per_cycle::underflows            0      0.00%      0.00% # Number of insts issued each cycle
system.switch_cpus0.iq.issued_per_cycle::0     36930883     30.74%     30.74% # Number of insts issued each cycle
system.switch_cpus0.iq.issued_per_cycle::1     12679946     10.55%     41.30% # Number of insts issued each cycle
system.switch_cpus0.iq.issued_per_cycle::2     11909064      9.91%     51.21% # Number of insts issued each cycle
system.switch_cpus0.iq.issued_per_cycle::3     11679916      9.72%     60.93% # Number of insts issued each cycle
system.switch_cpus0.iq.issued_per_cycle::4     11680156      9.72%     70.65% # Number of insts issued each cycle
system.switch_cpus0.iq.issued_per_cycle::5     11273779      9.38%     80.04% # Number of insts issued each cycle
system.switch_cpus0.iq.issued_per_cycle::6     10555151      8.79%     88.82% # Number of insts issued each cycle
system.switch_cpus0.iq.issued_per_cycle::7      7925641      6.60%     95.42% # Number of insts issued each cycle
system.switch_cpus0.iq.issued_per_cycle::8      5502285      4.58%    100.00% # Number of insts issued each cycle
system.switch_cpus0.iq.issued_per_cycle::overflows            0      0.00%    100.00% # Number of insts issued each cycle
system.switch_cpus0.iq.issued_per_cycle::min_value            0                       # Number of insts issued each cycle
system.switch_cpus0.iq.issued_per_cycle::max_value            8                       # Number of insts issued each cycle
system.switch_cpus0.iq.issued_per_cycle::total    120136821                       # Number of insts issued each cycle
system.switch_cpus0.iq.rate                  2.806805                       # Inst issue rate
system.switch_cpus0.iq.vec_alu_accesses             0                       # Number of vector alu accesses
system.switch_cpus0.iq.vec_inst_queue_reads            0                       # Number of vector instruction queue reads
system.switch_cpus0.iq.vec_inst_queue_wakeup_accesses            0                       # Number of vector instruction queue wakeup accesses
system.switch_cpus0.iq.vec_inst_queue_writes            0                       # Number of vector instruction queue writes
system.switch_cpus0.memDep0.conflictingLoads      3495568                       # Number of conflicting loads.
system.switch_cpus0.memDep0.conflictingStores      1964200                       # Number of conflicting stores.
system.switch_cpus0.memDep0.insertedLoads     61795462                       # Number of loads inserted to the mem dependence unit.
system.switch_cpus0.memDep0.insertedStores     20129137                       # Number of stores inserted to the mem dependence unit.
system.switch_cpus0.misc_regfile_reads      129473421                       # number of misc regfile reads
system.switch_cpus0.misc_regfile_writes             1                       # number of misc regfile writes
system.switch_cpus0.numCycles               120227794                       # number of cpu cycles simulated
system.switch_cpus0.numWorkItemsCompleted            0                       # number of work items this cpu completed
system.switch_cpus0.numWorkItemsStarted             0                       # number of work items this cpu started
system.switch_cpus0.timesIdled                    375                       # Number of times that the entire CPU went into an idle state and unscheduled itself
system.switch_cpus1.cc_regfile_reads        207020973                       # number of cc regfile reads
system.switch_cpus1.cc_regfile_writes       212134527                       # number of cc regfile writes
system.switch_cpus1.committedInsts          217018537                       # Number of Instructions Simulated
system.switch_cpus1.committedOps            425174307                       # Number of Ops (including micro ops) Simulated
system.switch_cpus1.cpi                      0.553998                       # CPI: Cycles Per Instruction
system.switch_cpus1.cpi_total                0.553998                       # CPI: Total CPI of All Threads
system.switch_cpus1.fp_regfile_reads             6894                       # number of floating regfile reads
system.switch_cpus1.fp_regfile_writes            6986                       # number of floating regfile writes
system.switch_cpus1.idleCycles                 239257                       # Total number of cycles that the CPU has spent unscheduled due to idling
system.switch_cpus1.iew.branchMispredicts      2464776                       # Number of branch mispredicts detected at execute
system.switch_cpus1.iew.exec_branches        40576686                       # Number of branches executed
system.switch_cpus1.iew.exec_nop                    0                       # number of nop insts executed
system.switch_cpus1.iew.exec_rate            4.208571                       # Inst execution rate
system.switch_cpus1.iew.exec_refs           147309837                       # number of memory reference insts executed
system.switch_cpus1.iew.exec_stores          40061800                       # Number of stores executed
system.switch_cpus1.iew.exec_swp                    0                       # number of swp insts executed
system.switch_cpus1.iew.iewBlockCycles       14677231                       # Number of cycles IEW is blocking
system.switch_cpus1.iew.iewDispLoadInsts    116723921                       # Number of dispatched load instructions
system.switch_cpus1.iew.iewDispNonSpecInsts            0                       # Number of dispatched non-speculative instructions
system.switch_cpus1.iew.iewDispSquashedInsts        10797                       # Number of squashed instructions skipped by dispatch
system.switch_cpus1.iew.iewDispStoreInsts     46664625                       # Number of dispatched store instructions
system.switch_cpus1.iew.iewDispatchedInsts    549890393                       # Number of instructions dispatched to IQ
system.switch_cpus1.iew.iewExecLoadInsts    107248037                       # Number of load instructions executed
system.switch_cpus1.iew.iewExecSquashedInsts      6817211                       # Number of squashed instructions skipped in execute
system.switch_cpus1.iew.iewExecutedInsts    505987155                       # Number of executed instructions
system.switch_cpus1.iew.iewIQFullEvents            35                       # Number of times the IQ has become full, causing a stall
system.switch_cpus1.iew.iewIdleCycles               0                       # Number of cycles IEW is idle
system.switch_cpus1.iew.iewLSQFullEvents         2890                       # Number of times the LSQ has become full, causing a stall
system.switch_cpus1.iew.iewSquashCycles       2011131                       # Number of cycles IEW is squashing
system.switch_cpus1.iew.iewUnblockCycles         2938                       # Number of cycles IEW is unblocking
system.switch_cpus1.iew.memOrderViolationEvents        34823                       # Number of memory order violations
system.switch_cpus1.iew.predictedNotTakenIncorrect      1227477                       # Number of branches that were predicted not taken incorrectly
system.switch_cpus1.iew.predictedTakenIncorrect      1237299                       # Number of branches that were predicted taken incorrectly
system.switch_cpus1.iew.wb_consumers        568187159                       # num instructions consuming a value
system.switch_cpus1.iew.wb_count            502835846                       # cumulative count of insts written-back
system.switch_cpus1.iew.wb_fanout            0.668556                       # average fanout of values written-back
system.switch_cpus1.iew.wb_producers        379864938                       # num instructions producing a value
system.switch_cpus1.iew.wb_rate              4.182359                       # insts written-back per cycle
system.switch_cpus1.iew.wb_sent             504937912                       # cumulative count of insts sent to commit
system.switch_cpus1.int_regfile_reads       731066407                       # number of integer regfile reads
system.switch_cpus1.int_regfile_writes      424402432                       # number of integer regfile writes
system.switch_cpus1.ipc                      1.805061                       # IPC: Instructions Per Cycle
system.switch_cpus1.ipc_total                1.805061                       # IPC: Total IPC of All Threads
system.switch_cpus1.iq.FU_type_0::No_OpClass      1118227      0.22%      0.22% # Type of FU issued
system.switch_cpus1.iq.FU_type_0::IntAlu    358042977     69.82%     70.04% # Type of FU issued
system.switch_cpus1.iq.FU_type_0::IntMult      3032990      0.59%     70.63% # Type of FU issued
system.switch_cpus1.iq.FU_type_0::IntDiv        32116      0.01%     70.64% # Type of FU issued
system.switch_cpus1.iq.FU_type_0::FloatAdd            0      0.00%     70.64% # Type of FU issued
system.switch_cpus1.iq.FU_type_0::FloatCmp            0      0.00%     70.64% # Type of FU issued
system.switch_cpus1.iq.FU_type_0::FloatCvt            0      0.00%     70.64% # Type of FU issued
system.switch_cpus1.iq.FU_type_0::FloatMult            0      0.00%     70.64% # Type of FU issued
system.switch_cpus1.iq.FU_type_0::FloatMultAcc            0      0.00%     70.64% # Type of FU issued
system.switch_cpus1.iq.FU_type_0::FloatDiv            0      0.00%     70.64% # Type of FU issued
system.switch_cpus1.iq.FU_type_0::FloatMisc            0      0.00%     70.64% # Type of FU issued
system.switch_cpus1.iq.FU_type_0::FloatSqrt            0      0.00%     70.64% # Type of FU issued
system.switch_cpus1.iq.FU_type_0::SimdAdd            0      0.00%     70.64% # Type of FU issued
system.switch_cpus1.iq.FU_type_0::SimdAddAcc            0      0.00%     70.64% # Type of FU issued
system.switch_cpus1.iq.FU_type_0::SimdAlu            0      0.00%     70.64% # Type of FU issued
system.switch_cpus1.iq.FU_type_0::SimdCmp            0      0.00%     70.64% # Type of FU issued
system.switch_cpus1.iq.FU_type_0::SimdCvt            0      0.00%     70.64% # Type of FU issued
system.switch_cpus1.iq.FU_type_0::SimdMisc            0      0.00%     70.64% # Type of FU issued
system.switch_cpus1.iq.FU_type_0::SimdMult            0      0.00%     70.64% # Type of FU issued
system.switch_cpus1.iq.FU_type_0::SimdMultAcc            0      0.00%     70.64% # Type of FU issued
system.switch_cpus1.iq.FU_type_0::SimdShift            0      0.00%     70.64% # Type of FU issued
system.switch_cpus1.iq.FU_type_0::SimdShiftAcc            0      0.00%     70.64% # Type of FU issued
system.switch_cpus1.iq.FU_type_0::SimdDiv            0      0.00%     70.64% # Type of FU issued
system.switch_cpus1.iq.FU_type_0::SimdSqrt            0      0.00%     70.64% # Type of FU issued
system.switch_cpus1.iq.FU_type_0::SimdFloatAdd            0      0.00%     70.64% # Type of FU issued
system.switch_cpus1.iq.FU_type_0::SimdFloatAlu            0      0.00%     70.64% # Type of FU issued
system.switch_cpus1.iq.FU_type_0::SimdFloatCmp            0      0.00%     70.64% # Type of FU issued
system.switch_cpus1.iq.FU_type_0::SimdFloatCvt            0      0.00%     70.64% # Type of FU issued
system.switch_cpus1.iq.FU_type_0::SimdFloatDiv            0      0.00%     70.64% # Type of FU issued
system.switch_cpus1.iq.FU_type_0::SimdFloatMisc            0      0.00%     70.64% # Type of FU issued
system.switch_cpus1.iq.FU_type_0::SimdFloatMult            0      0.00%     70.64% # Type of FU issued
system.switch_cpus1.iq.FU_type_0::SimdFloatMultAcc            0      0.00%     70.64% # Type of FU issued
system.switch_cpus1.iq.FU_type_0::SimdFloatSqrt            0      0.00%     70.64% # Type of FU issued
system.switch_cpus1.iq.FU_type_0::SimdReduceAdd            0      0.00%     70.64% # Type of FU issued
system.switch_cpus1.iq.FU_type_0::SimdReduceAlu            0      0.00%     70.64% # Type of FU issued
system.switch_cpus1.iq.FU_type_0::SimdReduceCmp            0      0.00%     70.64% # Type of FU issued
system.switch_cpus1.iq.FU_type_0::SimdFloatReduceAdd            0      0.00%     70.64% # Type of FU issued
system.switch_cpus1.iq.FU_type_0::SimdFloatReduceCmp            0      0.00%     70.64% # Type of FU issued
[...]
system.switch_cpus3.commit.numCommittedDist::stdev     3.087803                       # Number of insts commited each cycle
system.switch_cpus3.commit.numCommittedDist::underflows            0      0.00%      0.00% # Number of insts commited each cycle
system.switch_cpus3.commit.numCommittedDist::0     83204997     69.26%     69.26% # Number of insts commited each cycle
system.switch_cpus3.commit.numCommittedDist::1      6314141      5.26%     74.51% # Number of insts commited each cycle
system.switch_cpus3.commit.numCommittedDist::2      2269206      1.89%     76.40% # Number of insts commited each cycle
system.switch_cpus3.commit.numCommittedDist::3      2760066      2.30%     78.70% # Number of insts commited each cycle
system.switch_cpus3.commit.numCommittedDist::4      1988856      1.66%     80.35% # Number of insts commited each cycle
system.switch_cpus3.commit.numCommittedDist::5       877828      0.73%     81.09% # Number of insts commited each cycle
system.switch_cpus3.commit.numCommittedDist::6       415055      0.35%     81.43% # Number of insts commited each cycle
system.switch_cpus3.commit.numCommittedDist::7      1358311      1.13%     82.56% # Number of insts commited each cycle
system.switch_cpus3.commit.numCommittedDist::8     20950425     17.44%    100.00% # Number of insts commited each cycle
system.switch_cpus3.commit.numCommittedDist::overflows            0      0.00%    100.00% # Number of insts commited each cycle
system.switch_cpus3.commit.numCommittedDist::min_value            0                       # Number of insts commited each cycle
system.switch_cpus3.commit.numCommittedDist::max_value            8                       # Number of insts commited each cycle
system.switch_cpus3.commit.numCommittedDist::total    120138885                       # Number of insts commited each cycle
system.switch_cpus3.commit.instsCommitted    128097074                       # Number of instructions committed
system.switch_cpus3.commit.opsCommitted     211079222                       # Number of ops (including micro ops) committed
system.switch_cpus3.commit.memRefs           47257632                       # Number of memory references committed
system.switch_cpus3.commit.loads             33297031                       # Number of loads committed
system.switch_cpus3.commit.amos                     0                       # Number of atomic instructions committed
system.switch_cpus3.commit.membars                  0                       # Number of memory barriers committed
system.switch_cpus3.commit.branches          15725079                       # Number of branches committed
system.switch_cpus3.commit.vector                   0                       # Number of committed Vector instructions.
system.switch_cpus3.commit.floating          90308261                       # Number of committed floating point instructions.
system.switch_cpus3.commit.integer          151547578                       # Number of committed integer instructions.
system.switch_cpus3.commit.functionCalls      1180161                       # Number of function calls committed.
system.switch_cpus3.commit.committedInstType_0::No_OpClass         8833      0.00%      0.00% # Class of committed instruction
system.switch_cpus3.commit.committedInstType_0::IntAlu    118371208     56.08%     56.08% # Class of committed instruction
system.switch_cpus3.commit.committedInstType_0::IntMult         3743      0.00%     56.09% # Class of committed instruction
system.switch_cpus3.commit.committedInstType_0::IntDiv            0      0.00%     56.09% # Class of committed instruction
system.switch_cpus3.commit.committedInstType_0::FloatAdd      4423979      2.10%     58.18% # Class of committed instruction
system.switch_cpus3.commit.committedInstType_0::FloatCmp            0      0.00%     58.18% # Class of committed instruction
system.switch_cpus3.commit.committedInstType_0::FloatCvt            0      0.00%     58.18% # Class of committed instruction
system.switch_cpus3.commit.committedInstType_0::FloatMult            0      0.00%     58.18% # Class of committed instruction
system.switch_cpus3.commit.committedInstType_0::FloatMultAcc            0      0.00%     58.18% # Class of committed instruction
system.switch_cpus3.commit.committedInstType_0::FloatDiv            0      0.00%     58.18% # Class of committed instruction
system.switch_cpus3.commit.committedInstType_0::FloatMisc            0      0.00%     58.18% # Class of committed instruction
system.switch_cpus3.commit.committedInstType_0::FloatSqrt            0      0.00%     58.18% # Class of committed instruction
system.switch_cpus3.commit.committedInstType_0::SimdAdd            0      0.00%     58.18% # Class of committed instruction
system.switch_cpus3.commit.committedInstType_0::SimdAddAcc            0      0.00%     58.18% # Class of committed instruction
system.switch_cpus3.commit.committedInstType_0::SimdAlu      4808198      2.28%     60.46% # Class of committed instruction
system.switch_cpus3.commit.committedInstType_0::SimdCmp            0      0.00%     60.46% # Class of committed instruction
system.switch_cpus3.commit.committedInstType_0::SimdCvt            0      0.00%     60.46% # Class of committed instruction
system.switch_cpus3.commit.committedInstType_0::SimdMisc      2656287      1.26%     61.72% # Class of committed instruction
system.switch_cpus3.commit.committedInstType_0::SimdMult            0      0.00%     61.72% # Class of committed instruction
system.switch_cpus3.commit.committedInstType_0::SimdMultAcc            0      0.00%     61.72% # Class of committed instruction
system.switch_cpus3.commit.committedInstType_0::SimdShift            0      0.00%     61.72% # Class of committed instruction
system.switch_cpus3.commit.committedInstType_0::SimdShiftAcc            0      0.00%     61.72% # Class of committed instruction
system.switch_cpus3.commit.committedInstType_0::SimdDiv            0      0.00%     61.72% # Class of committed instruction
system.switch_cpus3.commit.committedInstType_0::SimdSqrt            0      0.00%     61.72% # Class of committed instruction
system.switch_cpus3.commit.committedInstType_0::SimdFloatAdd     13755093      6.52%     68.23% # Class of committed instruction
system.switch_cpus3.commit.committedInstType_0::SimdFloatAlu            0      0.00%     68.23% # Class of committed instruction
system.switch_cpus3.commit.committedInstType_0::SimdFloatCmp       376832      0.18%     68.41% # Class of committed instruction
system.switch_cpus3.commit.committedInstType_0::SimdFloatCvt      3194880      1.51%     69.93% # Class of committed instruction
system.switch_cpus3.commit.committedInstType_0::SimdFloatDiv      2604028      1.23%     71.16% # Class of committed instruction
system.switch_cpus3.commit.committedInstType_0::SimdFloatMisc            0      0.00%     71.16% # Class of committed instruction
system.switch_cpus3.commit.committedInstType_0::SimdFloatMult     13208907      6.26%     77.42% # Class of committed instruction
system.switch_cpus3.commit.committedInstType_0::SimdFloatMultAcc            0      0.00%     77.42% # Class of committed instruction
system.switch_cpus3.commit.committedInstType_0::SimdFloatSqrt       409602      0.19%     77.61% # Class of committed instruction
system.switch_cpus3.commit.committedInstType_0::SimdReduceAdd            0      0.00%     77.61% # Class of committed instruction
system.switch_cpus3.commit.committedInstType_0::SimdReduceAlu            0      0.00%     77.61% # Class of committed instruction
system.switch_cpus3.commit.committedInstType_0::SimdReduceCmp            0      0.00%     77.61% # Class of committed instruction
system.switch_cpus3.commit.committedInstType_0::SimdFloatReduceAdd            0      0.00%     77.61% # Class of committed instruction
system.switch_cpus3.commit.committedInstType_0::SimdFloatReduceCmp            0      0.00%     77.61% # Class of committed instruction
system.switch_cpus3.commit.committedInstType_0::SimdAes            0      0.00%     77.61% # Class of committed instruction
system.switch_cpus3.commit.committedInstType_0::SimdAesMix            0      0.00%     77.61% # Class of committed instruction
system.switch_cpus3.commit.committedInstType_0::SimdSha1Hash            0      0.00%     77.61% # Class of committed instruction
system.switch_cpus3.commit.committedInstType_0::SimdSha1Hash2            0      0.00%     77.61% # Class of committed instruction
system.switch_cpus3.commit.committedInstType_0::SimdSha256Hash            0      0.00%     77.61% # Class of committed instruction
system.switch_cpus3.commit.committedInstType_0::SimdSha256Hash2            0      0.00%     77.61% # Class of committed instruction
system.switch_cpus3.commit.committedInstType_0::SimdShaSigma2            0      0.00%     77.61% # Class of committed instruction
system.switch_cpus3.commit.committedInstType_0::SimdShaSigma3            0      0.00%     77.61% # Class of committed instruction
system.switch_cpus3.commit.committedInstType_0::SimdPredAlu            0      0.00%     77.61% # Class of committed instruction
system.switch_cpus3.commit.committedInstType_0::MemRead     12853763      6.09%     83.70% # Class of committed instruction
system.switch_cpus3.commit.committedInstType_0::MemWrite      6271737      2.97%     86.67% # Class of committed instruction
system.switch_cpus3.commit.committedInstType_0::FloatMemRead     20443268      9.69%     96.36% # Class of committed instruction
system.switch_cpus3.commit.committedInstType_0::FloatMemWrite      7688864      3.64%    100.00% # Class of committed instruction
system.switch_cpus3.commit.committedInstType_0::IprAccess            0      0.00%    100.00% # Class of committed instruction
system.switch_cpus3.commit.committedInstType_0::InstPrefetch            0      0.00%    100.00% # Class of committed instruction
system.switch_cpus3.commit.committedInstType_0::total    211079222                       # Class of committed instruction
system.switch_cpus3.commit.commitEligibleSamples     20950425                       # number cycles where commit BW limit reached
system.switch_cpus3.decode.idleCycles         2139822                       # Number of cycles decode is idle
system.switch_cpus3.decode.blockedCycles     86387065                       # Number of cycles decode is blocked
system.switch_cpus3.decode.runCycles         29064102                       # Number of cycles decode is running
system.switch_cpus3.decode.unblockCycles      2583485                       # Number of cycles decode is unblocking
system.switch_cpus3.decode.squashCycles         11849                       # Number of cycles decode is squashing
system.switch_cpus3.decode.branchResolved      6132456                       # Number of times decode resolved a  branch
system.switch_cpus3.decode.branchMispred          107                       # Number of times decode detected a branch misprediction
system.switch_cpus3.decode.decodedInsts     211576127                       # Number of instructions handled by decode
system.switch_cpus3.decode.squashedInsts          531                       # Number of squashed instructions handled by decode
system.switch_cpus3.dtb.rdAccesses           33353633                       # TLB accesses on read requests
system.switch_cpus3.dtb.wrAccesses           13968807                       # TLB accesses on write requests
system.switch_cpus3.dtb.rdMisses                36743                       # TLB misses on read requests
system.switch_cpus3.dtb.wrMisses                 7073                       # TLB misses on write requests
system.switch_cpus3.dtb.walker.power_state.pwrStateResidencyTicks::UNDEFINED 15691292984682                       # Cumulative time (in ticks) in various power states
system.switch_cpus3.fetch.icacheStallCycles        36693                       # Number of cycles fetch is stalled on an Icache miss
system.switch_cpus3.fetch.insts             128639474                       # Number of instructions fetch has processed
system.switch_cpus3.fetch.branches           15765862                       # Number of branches that fetch encountered
system.switch_cpus3.fetch.predictedBranches      8803215                       # Number of branches that fetch has predicted taken
system.switch_cpus3.fetch.cycles            120137686                       # Number of cycles fetch has run and was not squashing or blocked
system.switch_cpus3.fetch.squashCycles          23908                       # Number of cycles fetch has spent squashing
system.switch_cpus3.fetch.cacheLines         16125476                       # Number of cache lines fetched
system.switch_cpus3.fetch.icacheSquashes          177                       # Number of outstanding Icache misses that were squashed
system.switch_cpus3.fetch.nisnDist::samples    120186333                       # Number of instructions fetched each cycle (Total)
system.switch_cpus3.fetch.nisnDist::mean     1.762550                       # Number of instructions fetched each cycle (Total)
system.switch_cpus3.fetch.nisnDist::stdev     3.095940                       # Number of instructions fetched each cycle (Total)
system.switch_cpus3.fetch.nisnDist::underflows            0      0.00%      0.00% # Number of instructions fetched each cycle (Total)
system.switch_cpus3.fetch.nisnDist::0        85219543     70.91%     70.91% # Number of instructions fetched each cycle (Total)
system.switch_cpus3.fetch.nisnDist::1         3868293      3.22%     74.12% # Number of instructions fetched each cycle (Total)
system.switch_cpus3.fetch.nisnDist::2         1158835      0.96%     75.09% # Number of instructions fetched each cycle (Total)
system.switch_cpus3.fetch.nisnDist::3         4189410      3.49%     78.57% # Number of instructions fetched each cycle (Total)
system.switch_cpus3.fetch.nisnDist::4         1013980      0.84%     79.42% # Number of instructions fetched each cycle (Total)
system.switch_cpus3.fetch.nisnDist::5         1737811      1.45%     80.86% # Number of instructions fetched each cycle (Total)
system.switch_cpus3.fetch.nisnDist::6         1172058      0.98%     81.84% # Number of instructions fetched each cycle (Total)
system.switch_cpus3.fetch.nisnDist::7         1308368      1.09%     82.93% # Number of instructions fetched each cycle (Total)
system.switch_cpus3.fetch.nisnDist::8        20518035     17.07%    100.00% # Number of instructions fetched each cycle (Total)
system.switch_cpus3.fetch.nisnDist::overflows            0      0.00%    100.00% # Number of instructions fetched each cycle (Total)
system.switch_cpus3.fetch.nisnDist::min_value            0                       # Number of instructions fetched each cycle (Total)
system.switch_cpus3.fetch.nisnDist::max_value            8                       # Number of instructions fetched each cycle (Total)
system.switch_cpus3.fetch.nisnDist::total    120186333                       # Number of instructions fetched each cycle (Total)
system.switch_cpus3.fetch.branchRate         0.131133                       # Number of branch fetches per cycle
system.switch_cpus3.fetch.rate               1.069965                       # Number of inst fetches per cycle
system.switch_cpus3.itb.rdAccesses                  0                       # TLB accesses on read requests
system.switch_cpus3.itb.wrAccesses           16125476                       # TLB accesses on write requests
system.switch_cpus3.itb.rdMisses                    0                       # TLB misses on read requests
system.switch_cpus3.itb.wrMisses                   21                       # TLB misses on write requests
system.switch_cpus3.itb.walker.power_state.pwrStateResidencyTicks::UNDEFINED 15691292984682                       # Cumulative time (in ticks) in various power states
system.switch_cpus3.lsq0.forwLoads            2414423                       # Number of loads that had data forwarded from stores
system.switch_cpus3.lsq0.squashedLoads          79721                       # Number of loads squashed
system.switch_cpus3.lsq0.ignoredResponses           40                       # Number of memory responses ignored because the instruction is squashed
system.switch_cpus3.lsq0.memOrderViolation          807                       # Number of memory ordering violations
system.switch_cpus3.lsq0.squashedStores         33628                       # Number of stores squashed
system.switch_cpus3.lsq0.rescheduledLoads            0                       # Number of loads that were rescheduled
system.switch_cpus3.lsq0.blockedByCache             7                       # Number of times an access to memory failed due to the cache being blocked
system.switch_cpus3.power_state.pwrStateResidencyTicks::OFF  40035866058                       # Cumulative time (in ticks) in various power states
system.switch_cpus3.rename.squashCycles         11849                       # Number of cycles rename is squashing
system.switch_cpus3.rename.idleCycles         3268240                       # Number of cycles rename is idle
system.switch_cpus3.rename.blockCycles       35936148                       # Number of cycles rename is blocking
system.switch_cpus3.rename.serializeStallCycles            0                       # count of cycles rename stalledfor serializing inst
system.switch_cpus3.rename.runCycles         30464270                       # Number of cycles rename is running
system.switch_cpus3.rename.unblockCycles     50505816                       # Number of cycles rename is unblocking
system.switch_cpus3.rename.renamedInsts     211493545                       # Number of instructions processed by rename
system.switch_cpus3.rename.ROBFullEvents      1253286                       # Number of times rename has blocked due to ROB full
system.switch_cpus3.rename.IQFullEvents       3091212                       # Number of times rename has blocked due to IQ full
system.switch_cpus3.rename.LQFullEvents      19288087                       # Number of times rename has blocked due to LQ full
system.switch_cpus3.rename.SQFullEvents      28474294                       # Number of times rename has blocked due to SQ full
system.switch_cpus3.rename.renamedOperands    232607234                       # Number of destination operands rename has renamed
system.switch_cpus3.rename.lookups          514583490                       # Number of register rename lookups that rename has made
system.switch_cpus3.rename.intLookups       208188600                       # Number of integer rename lookups
system.switch_cpus3.rename.fpLookups        150757046                       # Number of floating rename lookups
system.switch_cpus3.rename.committedMaps    232142918                       # Number of HB maps that are committed
system.switch_cpus3.rename.undoneMaps          464316                       # Number of HB maps that are undone due to squashing
system.switch_cpus3.rename.serializing              0                       # count of serializing insts renamed
system.switch_cpus3.rename.tempSerializing            0                       # count of temporary serializing insts renamed
system.switch_cpus3.rename.skidInsts         13869169                       # count of insts added to the skid buffer
system.switch_cpus3.rob.reads               310596355                       # The number of ROB reads
system.switch_cpus3.rob.writes              422863331                       # The number of ROB writes
system.switch_cpus3.thread0.numInsts        128097074                       # Number of Instructions committed
system.switch_cpus3.thread0.numOps          211079222                       # Number of Ops committed
system.switch_cpus3.thread0.numMemRefs              0                       # Number of Memory References
system.voltage_domain.voltage                       1                       # Voltage in Volts

---------- End Simulation Statistics   ----------
