Command line:
./runscript_pride.sh mix12 RFM10.BR2.4C 4 2017 --rh_defense --rh_mitigation=RFM --rh_rfm_per_trefi=10 --rh_rfm_blast_radius=2 --rh_rfm_maxacts_per_trefi=79
Global frequency set at 1000000000000 ticks per second
RFM details - rfm_act_threshold: 7, blast_radius: 2, delay_per_rfm: 175000 ps. sample_rate: 0.125000
RH Defense config: RFM, Bus Delay: 0, rfms_per_trefi: 10, rfm_act_threshold: 7, blast_radius: 2,rfm_delay_per_act: 45000 ps.
DRAM config: RowsPerBank: 65536, BanksPerRank: 32, RanksPerChannel: 1
warn: Sockets disabled, not accepting gdb connections
warn: CoherentXBar system.cpu0.mmucache.mmubus has no snooping ports attached!
warn: CoherentXBar system.cpu1.mmucache.mmubus has no snooping ports attached!
warn: CoherentXBar system.cpu2.mmucache.mmubus has no snooping ports attached!
warn: CoherentXBar system.cpu3.mmucache.mmubus has no snooping ports attached!
warn: Checkpoints for file descriptors currently do not work.
warn: Checkpoints for file descriptors currently do not work.
warn: Checkpoints for file descriptors currently do not work.
warn: Checkpoints for file descriptors currently do not work.
gem5 Simulator System.  http://gem5.org
gem5 is copyrighted software; use the --copyright option for details.

gem5 version 20.1.0.5
gem5 compiled Jul 12 2024 12:42:38
gem5 started Jul 22 2024 18:54:38
gem5 executing on a07dda8b130c, pid 90015
command line: /home/user/PrIDE/performance/gem5/build/X86/gem5.opt --outdir=/home/user/PrIDE/performance/gem5/stats/pride_multiprogram_16GBmem_250Mn.SPEC2017.C4/RFM10.BR2.4C/mix12 /home/user/PrIDE/performance/gem5/configs/example/se_rq_spec_config_multicore.py --redirects /lib64=/home/utils/gcc-6.2.0/lib64 --benchmark=mix12 --benchmark_stdout=/home/user/PrIDE/performance/gem5/stats/pride_multiprogram_16GBmem_250Mn.SPEC2017.C4/RFM10.BR2.4C/mix12/mix12.out --benchmark_stderr=/home/user/PrIDE/performance/gem5/stats/pride_multiprogram_16GBmem_250Mn.SPEC2017.C4/RFM10.BR2.4C/mix12/mix12.err --spec-version=2017 --rh_defense --rh_mitigation=RFM --rh_rfm_per_trefi=10 --rh_rfm_blast_radius=2 --rh_rfm_maxacts_per_trefi=79 --num-cpus=4 --mem-size=16GB --mem-type=DDR5_2400_32x4 --mem-ranks=1 --checkpoint-dir=/home/user/PrIDE/performance/gem5/cpts/multiprogram_16GBmem_25Bn.SPEC2017.C4/mix12-1-ref-x86 --checkpoint-restore=25000000000 --at-instruction --cpu-type DerivO3CPU --caches --l2cache --l1d_size=32kB --l1i_size=32kB --l2_size=256kB --l1d_assoc=8 --l1i_assoc=8 --l2_assoc=16 --maxinsts=250000000 --prog-interval=300Hz

info: Standard input is not a terminal, disabling listeners.
Benchmark- 0   roms
Selected benchmark
--> roms
CMD: ['/opt/spec2017/benchspec/CPU/554.roms_r/run/run_base_refrate_gem5_se-m64.0000/roms_r_base.gem5_se-m64']
CWD: /opt/spec2017/benchspec/CPU/554.roms_r/run/run_base_refrate_gem5_se-m64.0000/
Process stdout file: /home/user/PrIDE/performance/gem5/stats/pride_multiprogram_16GBmem_250Mn.SPEC2017.C4/RFM10.BR2.4C/mix12/mix12.out_0
Process stderr file: /home/user/PrIDE/performance/gem5/stats/pride_multiprogram_16GBmem_250Mn.SPEC2017.C4/RFM10.BR2.4C/mix12/mix12.err_0
Benchmark- 1   mcf
Selected benchmark
--> mcf
CMD: ['/opt/spec2017/benchspec/CPU/505.mcf_r/run/run_base_refrate_gem5_se-m64.0000/mcf_r_base.gem5_se-m64', '/opt/spec2017/benchspec/CPU/505.mcf_r/run/run_base_refrate_gem5_se-m64.0000/inp.in']
CWD: /opt/spec2017/benchspec/CPU/505.mcf_r/run/run_base_refrate_gem5_se-m64.0000/
Process stdout file: /home/user/PrIDE/performance/gem5/stats/pride_multiprogram_16GBmem_250Mn.SPEC2017.C4/RFM10.BR2.4C/mix12/mix12.out_1
Process stderr file: /home/user/PrIDE/performance/gem5/stats/pride_multiprogram_16GBmem_250Mn.SPEC2017.C4/RFM10.BR2.4C/mix12/mix12.err_1
Benchmark- 2   imagick
Selected benchmark
--> imagick
CMD: ['/opt/spec2017/benchspec/CPU/538.imagick_r/run/run_base_refrate_gem5_se-m64.0000/imagick_r_base.gem5_se-m64', '-limit', 'disk', '0', '/opt/spec2017/benchspec/CPU/538.imagick_r/run/run_base_refrate_gem5_se-m64.0000/refrate_input.tga', '-edge', '41', '-resample', '181%', '-emboss', '31', '-colorspace', 'YUV', '-mean-shift', '19x19+15%', '-resize', '30%', '/opt/spec2017/benchspec/CPU/538.imagick_r/run/run_base_refrate_gem5_se-m64.0000/refrate_output.tga']
CWD: /opt/spec2017/benchspec/CPU/538.imagick_r/run/run_base_refrate_gem5_se-m64.0000/
Process stdout file: /home/user/PrIDE/performance/gem5/stats/pride_multiprogram_16GBmem_250Mn.SPEC2017.C4/RFM10.BR2.4C/mix12/mix12.out_2
Process stderr file: /home/user/PrIDE/performance/gem5/stats/pride_multiprogram_16GBmem_250Mn.SPEC2017.C4/RFM10.BR2.4C/mix12/mix12.err_2
Benchmark- 3   blender
Selected benchmark
--> blender
CMD: ['/opt/spec2017/benchspec/CPU/526.blender_r/run/run_base_refrate_gem5_se-m64.0000/blender_r_base.gem5_se-m64', '/opt/spec2017/benchspec/CPU/526.blender_r/run/run_base_refrate_gem5_se-m64.0000/sh3_no_char.blend', '--render-output', 'sh3_no_char_', '--threads', '1', '-b', '-F', 'RAWTGA', '-s', '849', '-e', '849', '-a']
CWD: /opt/spec2017/benchspec/CPU/526.blender_r/run/run_base_refrate_gem5_se-m64.0000/
Process stdout file: /home/user/PrIDE/performance/gem5/stats/pride_multiprogram_16GBmem_250Mn.SPEC2017.C4/RFM10.BR2.4C/mix12/mix12.out_3
Process stderr file: /home/user/PrIDE/performance/gem5/stats/pride_multiprogram_16GBmem_250Mn.SPEC2017.C4/RFM10.BR2.4C/mix12/mix12.err_3
Workload-0: 
['/opt/spec2017/benchspec/CPU/554.roms_r/run/run_base_refrate_gem5_se-m64.0000/roms_r_base.gem5_se-m64']
Workload-1: 
['/opt/spec2017/benchspec/CPU/505.mcf_r/run/run_base_refrate_gem5_se-m64.0000/mcf_r_base.gem5_se-m64', '/opt/spec2017/benchspec/CPU/505.mcf_r/run/run_base_refrate_gem5_se-m64.0000/inp.in']
Workload-2: 
['/opt/spec2017/benchspec/CPU/538.imagick_r/run/run_base_refrate_gem5_se-m64.0000/imagick_r_base.gem5_se-m64', '-limit', 'disk', '0', '/opt/spec2017/benchspec/CPU/538.imagick_r/run/run_base_refrate_gem5_se-m64.0000/refrate_input.tga', '-edge', '41', '-resample', '181%', '-emboss', '31', '-colorspace', 'YUV', '-mean-shift', '19x19+15%', '-resize', '30%', '/opt/spec2017/benchspec/CPU/538.imagick_r/run/run_base_refrate_gem5_se-m64.0000/refrate_output.tga']
Workload-3: 
['/opt/spec2017/benchspec/CPU/526.blender_r/run/run_base_refrate_gem5_se-m64.0000/blender_r_base.gem5_se-m64', '/opt/spec2017/benchspec/CPU/526.blender_r/run/run_base_refrate_gem5_se-m64.0000/sh3_no_char.blend', '--render-output', 'sh3_no_char_', '--threads', '1', '-b', '-F', 'RAWTGA', '-s', '849', '-e', '849', '-a']
defense_enable:  True  detector:  MG  mitigation:  RFM  threshold:  800
mg_entries:  1700
rfm_maxacts_per_trefi:  79 rfm_per_trefi:  10 rfm_blast_radius:  2
Switch at curTick count:10000
warn: membus.master is deprecated. `master` is now called `mem_side_ports`
warn: No dot file generated. Please install pydot to generate the dot file and pdf.
info: Entering event queue @ 15651257077665.  Starting simulation...
info: Entering event queue @ 15651257087665.  Starting simulation...
warn: PowerState: Already in the requested power state, request ignored
Switched CPUS @ tick 15651257087665
switching cpus
**** REAL SIMULATION ****
info: Entering event queue @ 15651257088321.  Starting simulation...
15654590410998: Event_285: system.switch_cpus3 progress event, total committed:36700412, progress insts committed: 36700412, IPC: 03.66637
15654590410998: Event_284: system.switch_cpus2 progress event, total committed:51296422, progress insts committed: 51296422, IPC: 05.12451
15654590410998: Event_283: system.switch_cpus1 progress event, total committed:10813418, progress insts committed: 10813418, IPC: 01.08026
15654590410998: Event_282: system.switch_cpus0 progress event, total committed:8593732, progress insts committed: 8593732, IPC: 0.858514
warn: MOVNTDQ: Ignoring non-temporal hint, modeling as cacheable!
15657923744331: Event_282: system.switch_cpus0 progress event, total committed:17336733, progress insts committed: 8743001, IPC: 0.873426
15657923744331: Event_283: system.switch_cpus1 progress event, total committed:21492312, progress insts committed: 10678894, IPC: 01.06682
15657923744331: Event_284: system.switch_cpus2 progress event, total committed:97852353, progress insts committed: 46555931, IPC: 04.65094
15657923744331: Event_285: system.switch_cpus3 progress event, total committed:74256108, progress insts committed: 37555696, IPC: 03.75181
15661257077664: Event_285: system.switch_cpus3 progress event, total committed:111150578, progress insts committed: 36894470, IPC: 03.68576
15661257077664: Event_284: system.switch_cpus2 progress event, total committed:118205157, progress insts committed: 20352804, IPC: 02.03325
15661257077664: Event_283: system.switch_cpus1 progress event, total committed:32055338, progress insts committed: 10563026, IPC: 01.05525
15661257077664: Event_282: system.switch_cpus0 progress event, total committed:25306610, progress insts committed: 7969877, IPC: 0.796191
15664590410997: Event_282: system.switch_cpus0 progress event, total committed:34369243, progress insts committed: 9062633, IPC: 0.905357
15664590410997: Event_283: system.switch_cpus1 progress event, total committed:41909337, progress insts committed: 9853999, IPC: 0.984415
15664590410997: Event_284: system.switch_cpus2 progress event, total committed:171126937, progress insts committed: 52921780, IPC: 05.28689
15664590410997: Event_285: system.switch_cpus3 progress event, total committed:146537806, progress insts committed: 35387228, IPC: 03.53518
15667923744330: Event_285: system.switch_cpus3 progress event, total committed:179681392, progress insts committed: 33143586, IPC: 03.31104
15667923744330: Event_284: system.switch_cpus2 progress event, total committed:223636112, progress insts committed: 52509175, IPC: 05.24567
15667923744330: Event_283: system.switch_cpus1 progress event, total committed:50883108, progress insts committed: 8973771, IPC: 00.89648
15667923744330: Event_282: system.switch_cpus0 progress event, total committed:42350813, progress insts committed: 7981570, IPC: 0.797359
15671257077663: Event_282: system.switch_cpus0 progress event, total committed:50473126, progress insts committed: 8122313, IPC: 0.811419
15671257077663: Event_283: system.switch_cpus1 progress event, total committed:60026931, progress insts committed: 9143823, IPC: 0.913468
15671257077663: Event_284: system.switch_cpus2 progress event, total committed:276293172, progress insts committed: 52657060, IPC: 05.26044
15671257077663: Event_285: system.switch_cpus3 progress event, total committed:213899781, progress insts committed: 34218389, IPC: 03.41842
15674590410996: Event_285: system.switch_cpus3 progress event, total committed:250439495, progress insts committed: 36539714, IPC: 03.65032
15674590410996: Event_284: system.switch_cpus2 progress event, total committed:329228362, progress insts committed: 52935190, IPC: 05.28823
15674590410996: Event_283: system.switch_cpus1 progress event, total committed:70298068, progress insts committed: 10271137, IPC: 01.02609
15674590410996: Event_282: system.switch_cpus0 progress event, total committed:68845126, progress insts committed: 18372000, IPC: 01.83536
15677923744329: Event_282: system.switch_cpus0 progress event, total committed:92697557, progress insts committed: 23852431, IPC: 02.38286
15677923744329: Event_283: system.switch_cpus1 progress event, total committed:81552209, progress insts committed: 11254141, IPC: 01.12429
15677923744329: Event_284: system.switch_cpus2 progress event, total committed:382331669, progress insts committed: 53103307, IPC: 05.30502
15677923744329: Event_285: system.switch_cpus3 progress event, total committed:288319217, progress insts committed: 37879722, IPC: 03.78418
Exiting @ tick 15680485022130 because a thread reached the max instruction count
