
---------- Begin Simulation Statistics ----------
final_tick                               16848450245439                       # Number of ticks from beginning of simulation (restored from checkpoints and never reset)
host_inst_rate                                  79426                       # Simulator instruction rate (inst/s)
host_mem_usage                               17215644                       # Number of bytes of host memory used
host_op_rate                                   136065                       # Simulator op (including micro ops) rate (op/s)
host_seconds                                  8004.62                       # Real time elapsed on the host
host_tick_rate                                4160014                       # Simulator tick rate (ticks/s)
sim_freq                                 1000000000000                       # Frequency of simulated ticks
sim_insts                                   635771637                       # Number of instructions simulated
sim_ops                                    1089150502                       # Number of ops (including micro ops) simulated
sim_seconds                                  0.033299                       # Number of seconds simulated
sim_ticks                                 33299339328                       # Number of ticks simulated
system.cpu0.Branches                                1                       # Number of branches fetched
system.cpu0.committedInsts                         14                       # Number of instructions committed
system.cpu0.committedOps                           23                       # Number of ops (including micro ops) committed
system.cpu0.idle_fraction                           0                       # Percentage of idle cycles
system.cpu0.l2bus.snoop_filter.hit_multi_requests          339                       # Number of requests hitting in the snoop filter with multiple (>1) holders of the requested data.
system.cpu0.l2bus.snoop_filter.hit_multi_snoops            0                       # Number of snoops hitting in the snoop filter with multiple (>1) holders of the requested data.
system.cpu0.l2bus.snoop_filter.hit_single_requests      1456632                       # Number of requests hitting in the snoop filter with a single holder of the requested data.
system.cpu0.l2bus.snoop_filter.hit_single_snoops         2228                       # Number of snoops hitting in the snoop filter with a single holder of the requested data.
system.cpu0.l2bus.snoop_filter.tot_requests      2914239                       # Total number of requests made to the snoop filter.
system.cpu0.l2bus.snoop_filter.tot_snoops         2228                       # Total number of snoops made to the snoop filter.
system.cpu0.mmucache.mmubus.snoop_filter.hit_multi_requests            0                       # Number of requests hitting in the snoop filter with multiple (>1) holders of the requested data.
system.cpu0.mmucache.mmubus.snoop_filter.hit_multi_snoops            0                       # Number of snoops hitting in the snoop filter with multiple (>1) holders of the requested data.
system.cpu0.mmucache.mmubus.snoop_filter.hit_single_requests            0                       # Number of requests hitting in the snoop filter with a single holder of the requested data.
system.cpu0.mmucache.mmubus.snoop_filter.hit_single_snoops            0                       # Number of snoops hitting in the snoop filter with a single holder of the requested data.
system.cpu0.mmucache.mmubus.snoop_filter.tot_requests            0                       # Total number of requests made to the snoop filter.
system.cpu0.mmucache.mmubus.snoop_filter.tot_snoops            0                       # Total number of snoops made to the snoop filter.
system.cpu0.not_idle_fraction                       1                       # Percentage of non-idle cycles
system.cpu0.numCycles                              31                       # number of cpu cycles simulated
system.cpu0.numWorkItemsCompleted                   0                       # number of work items this cpu completed
system.cpu0.numWorkItemsStarted                     0                       # number of work items this cpu started
system.cpu0.num_busy_cycles                        31                       # Number of busy cycles
system.cpu0.num_conditional_control_insts            0                       # number of instructions that are conditional controls
system.cpu0.num_fp_alu_accesses                    17                       # Number of float alu accesses
system.cpu0.num_fp_insts                           17                       # number of float instructions
system.cpu0.num_fp_register_reads                  33                       # number of times the floating registers were read
system.cpu0.num_fp_register_writes                 17                       # number of times the floating registers were written
system.cpu0.num_func_calls                          1                       # number of times a function call or return occured
system.cpu0.num_idle_cycles                         0                       # Number of idle cycles
system.cpu0.num_int_alu_accesses                   10                       # Number of integer alu accesses
system.cpu0.num_int_insts                          10                       # number of integer instructions
system.cpu0.num_int_register_reads                 24                       # number of times the integer registers were read
system.cpu0.num_int_register_writes                 4                       # number of times the integer registers were written
system.cpu0.num_load_insts                          5                       # Number of load instructions
system.cpu0.num_mem_refs                            6                       # number of memory refs
system.cpu0.num_store_insts                         1                       # Number of store instructions
system.cpu0.num_vec_alu_accesses                    0                       # Number of vector alu accesses
system.cpu0.num_vec_insts                           0                       # number of vector instructions
system.cpu0.num_vec_register_reads                  0                       # number of times the vector registers were read
system.cpu0.num_vec_register_writes                 0                       # number of times the vector registers were written
system.cpu0.op_class::No_OpClass                    0      0.00%      0.00% # Class of executed instruction
system.cpu0.op_class::IntAlu                        4     17.39%     17.39% # Class of executed instruction
system.cpu0.op_class::IntMult                       0      0.00%     17.39% # Class of executed instruction
system.cpu0.op_class::IntDiv                        0      0.00%     17.39% # Class of executed instruction
system.cpu0.op_class::FloatAdd                      1      4.35%     21.74% # Class of executed instruction
system.cpu0.op_class::FloatCmp                      0      0.00%     21.74% # Class of executed instruction
system.cpu0.op_class::FloatCvt                      0      0.00%     21.74% # Class of executed instruction
system.cpu0.op_class::FloatMult                     0      0.00%     21.74% # Class of executed instruction
system.cpu0.op_class::FloatMultAcc                  0      0.00%     21.74% # Class of executed instruction
system.cpu0.op_class::FloatDiv                      0      0.00%     21.74% # Class of executed instruction
system.cpu0.op_class::FloatMisc                     0      0.00%     21.74% # Class of executed instruction
system.cpu0.op_class::FloatSqrt                     0      0.00%     21.74% # Class of executed instruction
system.cpu0.op_class::SimdAdd                       0      0.00%     21.74% # Class of executed instruction
system.cpu0.op_class::SimdAddAcc                    0      0.00%     21.74% # Class of executed instruction
system.cpu0.op_class::SimdAlu                       2      8.70%     30.43% # Class of executed instruction
system.cpu0.op_class::SimdCmp                       0      0.00%     30.43% # Class of executed instruction
system.cpu0.op_class::SimdCvt                       0      0.00%     30.43% # Class of executed instruction
system.cpu0.op_class::SimdMisc                      0      0.00%     30.43% # Class of executed instruction
system.cpu0.op_class::SimdMult                      0      0.00%     30.43% # Class of executed instruction
system.cpu0.op_class::SimdMultAcc                   0      0.00%     30.43% # Class of executed instruction
system.cpu0.op_class::SimdShift                     0      0.00%     30.43% # Class of executed instruction
system.cpu0.op_class::SimdShiftAcc                  0      0.00%     30.43% # Class of executed instruction
system.cpu0.op_class::SimdDiv                       0      0.00%     30.43% # Class of executed instruction
system.cpu0.op_class::SimdSqrt                      0      0.00%     30.43% # Class of executed instruction
system.cpu0.op_class::SimdFloatAdd                  4     17.39%     47.83% # Class of executed instruction
system.cpu0.op_class::SimdFloatAlu                  0      0.00%     47.83% # Class of executed instruction
system.cpu0.op_class::SimdFloatCmp                  0      0.00%     47.83% # Class of executed instruction
system.cpu0.op_class::SimdFloatCvt                  1      4.35%     52.17% # Class of executed instruction
system.cpu0.op_class::SimdFloatDiv                  0      0.00%     52.17% # Class of executed instruction
system.cpu0.op_class::SimdFloatMisc                 0      0.00%     52.17% # Class of executed instruction
system.cpu0.op_class::SimdFloatMult                 5     21.74%     73.91% # Class of executed instruction
system.cpu0.op_class::SimdFloatMultAcc              0      0.00%     73.91% # Class of executed instruction
system.cpu0.op_class::SimdFloatSqrt                 0      0.00%     73.91% # Class of executed instruction
system.cpu0.op_class::SimdReduceAdd                 0      0.00%     73.91% # Class of executed instruction
system.cpu0.op_class::SimdReduceAlu                 0      0.00%     73.91% # Class of executed instruction
system.cpu0.op_class::SimdReduceCmp                 0      0.00%     73.91% # Class of executed instruction
system.cpu0.op_class::SimdFloatReduceAdd            0      0.00%     73.91% # Class of executed instruction
system.cpu0.op_class::SimdFloatReduceCmp            0      0.00%     73.91% # Class of executed instruction
system.cpu0.op_class::SimdAes                       0      0.00%     73.91% # Class of executed instruction
system.cpu0.op_class::SimdAesMix                    0      0.00%     73.91% # Class of executed instruction
system.cpu0.op_class::SimdSha1Hash                  0      0.00%     73.91% # Class of executed instruction
system.cpu0.op_class::SimdSha1Hash2                 0      0.00%     73.91% # Class of executed instruction
system.cpu0.op_class::SimdSha256Hash                0      0.00%     73.91% # Class of executed instruction
system.cpu0.op_class::SimdSha256Hash2               0      0.00%     73.91% # Class of executed instruction
system.cpu0.op_class::SimdShaSigma2                 0      0.00%     73.91% # Class of executed instruction
system.cpu0.op_class::SimdShaSigma3                 0      0.00%     73.91% # Class of executed instruction
system.cpu0.op_class::SimdPredAlu                   0      0.00%     73.91% # Class of executed instruction
system.cpu0.op_class::MemRead                       1      4.35%     78.26% # Class of executed instruction
system.cpu0.op_class::MemWrite                      1      4.35%     82.61% # Class of executed instruction
system.cpu0.op_class::FloatMemRead                  4     17.39%    100.00% # Class of executed instruction
system.cpu0.op_class::FloatMemWrite                 0      0.00%    100.00% # Class of executed instruction
system.cpu0.op_class::IprAccess                     0      0.00%    100.00% # Class of executed instruction
system.cpu0.op_class::InstPrefetch                  0      0.00%    100.00% # Class of executed instruction
system.cpu0.op_class::total                        23                       # Class of executed instruction
system.cpu0.workload.numSyscalls                    0                       # Number of system calls
system.cpu1.Branches                                1                       # Number of branches fetched
system.cpu1.committedInsts                         15                       # Number of instructions committed
system.cpu1.committedOps                           24                       # Number of ops (including micro ops) committed
system.cpu1.idle_fraction                           0                       # Percentage of idle cycles
system.cpu1.l2bus.snoop_filter.hit_multi_requests        38019                       # Number of requests hitting in the snoop filter with multiple (>1) holders of the requested data.
system.cpu1.l2bus.snoop_filter.hit_multi_snoops            0                       # Number of snoops hitting in the snoop filter with multiple (>1) holders of the requested data.
system.cpu1.l2bus.snoop_filter.hit_single_requests      1743668                       # Number of requests hitting in the snoop filter with a single holder of the requested data.
system.cpu1.l2bus.snoop_filter.hit_single_snoops            0                       # Number of snoops hitting in the snoop filter with a single holder of the requested data.
system.cpu1.l2bus.snoop_filter.tot_requests      3488325                       # Total number of requests made to the snoop filter.
system.cpu1.l2bus.snoop_filter.tot_snoops            0                       # Total number of snoops made to the snoop filter.
system.cpu1.mmucache.mmubus.snoop_filter.hit_multi_requests            0                       # Number of requests hitting in the snoop filter with multiple (>1) holders of the requested data.
system.cpu1.mmucache.mmubus.snoop_filter.hit_multi_snoops            0                       # Number of snoops hitting in the snoop filter with multiple (>1) holders of the requested data.
system.cpu1.mmucache.mmubus.snoop_filter.hit_single_requests            0                       # Number of requests hitting in the snoop filter with a single holder of the requested data.
system.cpu1.mmucache.mmubus.snoop_filter.hit_single_snoops            0                       # Number of snoops hitting in the snoop filter with a single holder of the requested data.
system.cpu1.mmucache.mmubus.snoop_filter.tot_requests            0                       # Total number of requests made to the snoop filter.
system.cpu1.mmucache.mmubus.snoop_filter.tot_snoops            0                       # Total number of snoops made to the snoop filter.
system.cpu1.not_idle_fraction                       1                       # Percentage of non-idle cycles
system.cpu1.numCycles                              30                       # number of cpu cycles simulated
system.cpu1.numWorkItemsCompleted                   0                       # number of work items this cpu completed
system.cpu1.numWorkItemsStarted                     0                       # number of work items this cpu started
system.cpu1.num_busy_cycles                        30                       # Number of busy cycles
system.cpu1.num_cc_register_reads                   8                       # number of times the CC registers were read
system.cpu1.num_cc_register_writes                  8                       # number of times the CC registers were written
system.cpu1.num_conditional_control_insts            1                       # number of instructions that are conditional controls
system.cpu1.num_fp_alu_accesses                     1                       # Number of float alu accesses
system.cpu1.num_fp_insts                            1                       # number of float instructions
system.cpu1.num_fp_register_reads                   0                       # number of times the floating registers were read
system.cpu1.num_fp_register_writes                  1                       # number of times the floating registers were written
system.cpu1.num_func_calls                          0                       # number of times a function call or return occured
system.cpu1.num_idle_cycles                         0                       # Number of idle cycles
system.cpu1.num_int_alu_accesses                   24                       # Number of integer alu accesses
system.cpu1.num_int_insts                          24                       # number of integer instructions
system.cpu1.num_int_register_reads                 56                       # number of times the integer registers were read
system.cpu1.num_int_register_writes                17                       # number of times the integer registers were written
system.cpu1.num_load_insts                          4                       # Number of load instructions
system.cpu1.num_mem_refs                            9                       # number of memory refs
system.cpu1.num_store_insts                         5                       # Number of store instructions
system.cpu1.num_vec_alu_accesses                    0                       # Number of vector alu accesses
system.cpu1.num_vec_insts                           0                       # number of vector instructions
system.cpu1.num_vec_register_reads                  0                       # number of times the vector registers were read
system.cpu1.num_vec_register_writes                 0                       # number of times the vector registers were written
system.cpu1.op_class::No_OpClass                    0      0.00%      0.00% # Class of executed instruction
system.cpu1.op_class::IntAlu                       15     62.50%     62.50% # Class of executed instruction
system.cpu1.op_class::IntMult                       0      0.00%     62.50% # Class of executed instruction
system.cpu1.op_class::IntDiv                        0      0.00%     62.50% # Class of executed instruction
system.cpu1.op_class::FloatAdd                      0      0.00%     62.50% # Class of executed instruction
system.cpu1.op_class::FloatCmp                      0      0.00%     62.50% # Class of executed instruction
system.cpu1.op_class::FloatCvt                      0      0.00%     62.50% # Class of executed instruction
system.cpu1.op_class::FloatMult                     0      0.00%     62.50% # Class of executed instruction
system.cpu1.op_class::FloatMultAcc                  0      0.00%     62.50% # Class of executed instruction
system.cpu1.op_class::FloatDiv                      0      0.00%     62.50% # Class of executed instruction
system.cpu1.op_class::FloatMisc                     0      0.00%     62.50% # Class of executed instruction
system.cpu1.op_class::FloatSqrt                     0      0.00%     62.50% # Class of executed instruction
system.cpu1.op_class::SimdAdd                       0      0.00%     62.50% # Class of executed instruction
system.cpu1.op_class::SimdAddAcc                    0      0.00%     62.50% # Class of executed instruction
system.cpu1.op_class::SimdAlu                       0      0.00%     62.50% # Class of executed instruction
system.cpu1.op_class::SimdCmp                       0      0.00%     62.50% # Class of executed instruction
system.cpu1.op_class::SimdCvt                       0      0.00%     62.50% # Class of executed instruction
system.cpu1.op_class::SimdMisc                      0      0.00%     62.50% # Class of executed instruction
system.cpu1.op_class::SimdMult                      0      0.00%     62.50% # Class of executed instruction
system.cpu1.op_class::SimdMultAcc                   0      0.00%     62.50% # Class of executed instruction
system.cpu1.op_class::SimdShift                     0      0.00%     62.50% # Class of executed instruction
system.cpu1.op_class::SimdShiftAcc                  0      0.00%     62.50% # Class of executed instruction
system.cpu1.op_class::SimdDiv                       0      0.00%     62.50% # Class of executed instruction
system.cpu1.op_class::SimdSqrt                      0      0.00%     62.50% # Class of executed instruction
system.cpu1.op_class::SimdFloatAdd                  0      0.00%     62.50% # Class of executed instruction
system.cpu1.op_class::SimdFloatAlu                  0      0.00%     62.50% # Class of executed instruction
system.cpu1.op_class::SimdFloatCmp                  0      0.00%     62.50% # Class of executed instruction
system.cpu1.op_class::SimdFloatCvt                  0      0.00%     62.50% # Class of executed instruction
system.cpu1.op_class::SimdFloatDiv                  0      0.00%     62.50% # Class of executed instruction
system.cpu1.op_class::SimdFloatMisc                 0      0.00%     62.50% # Class of executed instruction
system.cpu1.op_class::SimdFloatMult                 0      0.00%     62.50% # Class of executed instruction
system.cpu1.op_class::SimdFloatMultAcc              0      0.00%     62.50% # Class of executed instruction
system.cpu1.op_class::SimdFloatSqrt                 0      0.00%     62.50% # Class of executed instruction
system.cpu1.op_class::SimdReduceAdd                 0      0.00%     62.50% # Class of executed instruction
system.cpu1.op_class::SimdReduceAlu                 0      0.00%     62.50% # Class of executed instruction
system.cpu1.op_class::SimdReduceCmp                 0      0.00%     62.50% # Class of executed instruction
system.cpu1.op_class::SimdFloatReduceAdd            0      0.00%     62.50% # Class of executed instruction
system.cpu1.op_class::SimdFloatReduceCmp            0      0.00%     62.50% # Class of executed instruction
system.cpu1.op_class::SimdAes                       0      0.00%     62.50% # Class of executed instruction
system.cpu1.op_class::SimdAesMix                    0      0.00%     62.50% # Class of executed instruction
system.cpu1.op_class::SimdSha1Hash                  0      0.00%     62.50% # Class of executed instruction
system.cpu1.op_class::SimdSha1Hash2                 0      0.00%     62.50% # Class of executed instruction
system.cpu1.op_class::SimdSha256Hash                0      0.00%     62.50% # Class of executed instruction
system.cpu1.op_class::SimdSha256Hash2               0      0.00%     62.50% # Class of executed instruction
system.cpu1.op_class::SimdShaSigma2                 0      0.00%     62.50% # Class of executed instruction
system.cpu1.op_class::SimdShaSigma3                 0      0.00%     62.50% # Class of executed instruction
system.cpu1.op_class::SimdPredAlu                   0      0.00%     62.50% # Class of executed instruction
system.cpu1.op_class::MemRead                       3     12.50%     75.00% # Class of executed instruction
system.cpu1.op_class::MemWrite                      5     20.83%     95.83% # Class of executed instruction
system.cpu1.op_class::FloatMemRead                  1      4.17%    100.00% # Class of executed instruction
system.cpu1.op_class::FloatMemWrite                 0      0.00%    100.00% # Class of executed instruction
system.cpu1.op_class::IprAccess                     0      0.00%    100.00% # Class of executed instruction
system.cpu1.op_class::InstPrefetch                  0      0.00%    100.00% # Class of executed instruction
system.cpu1.op_class::total                        24                       # Class of executed instruction
system.cpu1.workload.numSyscalls                    2                       # Number of system calls
system.cpu2.Branches                                2                       # Number of branches fetched
system.cpu2.committedInsts                         16                       # Number of instructions committed
system.cpu2.committedOps                           24                       # Number of ops (including micro ops) committed
system.cpu2.idle_fraction                           0                       # Percentage of idle cycles
system.cpu2.l2bus.snoop_filter.hit_multi_requests           93                       # Number of requests hitting in the snoop filter with multiple (>1) holders of the requested data.
system.cpu2.l2bus.snoop_filter.hit_multi_snoops            0                       # Number of snoops hitting in the snoop filter with multiple (>1) holders of the requested data.
system.cpu2.l2bus.snoop_filter.hit_single_requests      2409604                       # Number of requests hitting in the snoop filter with a single holder of the requested data.
system.cpu2.l2bus.snoop_filter.hit_single_snoops          311                       # Number of snoops hitting in the snoop filter with a single holder of the requested data.
system.cpu2.l2bus.snoop_filter.tot_requests      4804057                       # Total number of requests made to the snoop filter.
system.cpu2.l2bus.snoop_filter.tot_snoops          311                       # Total number of snoops made to the snoop filter.
system.cpu2.mmucache.mmubus.snoop_filter.hit_multi_requests            0                       # Number of requests hitting in the snoop filter with multiple (>1) holders of the requested data.
system.cpu2.mmucache.mmubus.snoop_filter.hit_multi_snoops            0                       # Number of snoops hitting in the snoop filter with multiple (>1) holders of the requested data.
system.cpu2.mmucache.mmubus.snoop_filter.hit_single_requests            0                       # Number of requests hitting in the snoop filter with a single holder of the requested data.
system.cpu2.mmucache.mmubus.snoop_filter.hit_single_snoops            0                       # Number of snoops hitting in the snoop filter with a single holder of the requested data.
system.cpu2.mmucache.mmubus.snoop_filter.tot_requests            0                       # Total number of requests made to the snoop filter.
system.cpu2.mmucache.mmubus.snoop_filter.tot_snoops            0                       # Total number of snoops made to the snoop filter.
system.cpu2.not_idle_fraction                       1                       # Percentage of non-idle cycles
system.cpu2.numCycles                              30                       # number of cpu cycles simulated
system.cpu2.numWorkItemsCompleted                   0                       # number of work items this cpu completed
system.cpu2.numWorkItemsStarted                     0                       # number of work items this cpu started
system.cpu2.num_busy_cycles                        30                       # Number of busy cycles
system.cpu2.num_cc_register_reads                  12                       # number of times the CC registers were read
system.cpu2.num_cc_register_writes                 12                       # number of times the CC registers were written
system.cpu2.num_conditional_control_insts            2                       # number of instructions that are conditional controls
system.cpu2.num_fp_alu_accesses                     0                       # Number of float alu accesses
system.cpu2.num_fp_insts                            0                       # number of float instructions
system.cpu2.num_fp_register_reads                   0                       # number of times the floating registers were read
system.cpu2.num_fp_register_writes                  0                       # number of times the floating registers were written
system.cpu2.num_func_calls                          0                       # number of times a function call or return occured
system.cpu2.num_idle_cycles                         0                       # Number of idle cycles
system.cpu2.num_int_alu_accesses                   24                       # Number of integer alu accesses
system.cpu2.num_int_insts                          24                       # number of integer instructions
system.cpu2.num_int_register_reads                 56                       # number of times the integer registers were read
system.cpu2.num_int_register_writes                19                       # number of times the integer registers were written
system.cpu2.num_load_insts                          7                       # Number of load instructions
system.cpu2.num_mem_refs                           10                       # number of memory refs
system.cpu2.num_store_insts                         3                       # Number of store instructions
system.cpu2.num_vec_alu_accesses                    0                       # Number of vector alu accesses
system.cpu2.num_vec_insts                           0                       # number of vector instructions
system.cpu2.num_vec_register_reads                  0                       # number of times the vector registers were read
system.cpu2.num_vec_register_writes                 0                       # number of times the vector registers were written
system.cpu2.op_class::No_OpClass                    0      0.00%      0.00% # Class of executed instruction
system.cpu2.op_class::IntAlu                       14     58.33%     58.33% # Class of executed instruction
system.cpu2.op_class::IntMult                       0      0.00%     58.33% # Class of executed instruction
system.cpu2.op_class::IntDiv                        0      0.00%     58.33% # Class of executed instruction
system.cpu2.op_class::FloatAdd                      0      0.00%     58.33% # Class of executed instruction
system.cpu2.op_class::FloatCmp                      0      0.00%     58.33% # Class of executed instruction
system.cpu2.op_class::FloatCvt                      0      0.00%     58.33% # Class of executed instruction
system.cpu2.op_class::FloatMult                     0      0.00%     58.33% # Class of executed instruction
system.cpu2.op_class::FloatMultAcc                  0      0.00%     58.33% # Class of executed instruction
system.cpu2.op_class::FloatDiv                      0      0.00%     58.33% # Class of executed instruction
system.cpu2.op_class::FloatMisc                     0      0.00%     58.33% # Class of executed instruction
system.cpu2.op_class::FloatSqrt                     0      0.00%     58.33% # Class of executed instruction
system.cpu2.op_class::SimdAdd                       0      0.00%     58.33% # Class of executed instruction
system.cpu2.op_class::SimdAddAcc                    0      0.00%     58.33% # Class of executed instruction
system.cpu2.op_class::SimdAlu                       0      0.00%     58.33% # Class of executed instruction
system.cpu2.op_class::SimdCmp                       0      0.00%     58.33% # Class of executed instruction
system.cpu2.op_class::SimdCvt                       0      0.00%     58.33% # Class of executed instruction
system.cpu2.op_class::SimdMisc                      0      0.00%     58.33% # Class of executed instruction
system.cpu2.op_class::SimdMult                      0      0.00%     58.33% # Class of executed instruction
system.cpu2.op_class::SimdMultAcc                   0      0.00%     58.33% # Class of executed instruction
system.cpu2.op_class::SimdShift                     0      0.00%     58.33% # Class of executed instruction
system.cpu2.op_class::SimdShiftAcc                  0      0.00%     58.33% # Class of executed instruction
system.cpu2.op_class::SimdDiv                       0      0.00%     58.33% # Class of executed instruction
system.cpu2.op_class::SimdSqrt                      0      0.00%     58.33% # Class of executed instruction
system.cpu2.op_class::SimdFloatAdd                  0      0.00%     58.33% # Class of executed instruction
system.cpu2.op_class::SimdFloatAlu                  0      0.00%     58.33% # Class of executed instruction
system.cpu2.op_class::SimdFloatCmp                  0      0.00%     58.33% # Class of executed instruction
system.cpu2.op_class::SimdFloatCvt                  0      0.00%     58.33% # Class of executed instruction
system.cpu2.op_class::SimdFloatDiv                  0      0.00%     58.33% # Class of executed instruction
system.cpu2.op_class::SimdFloatMisc                 0      0.00%     58.33% # Class of executed instruction
system.cpu2.op_class::SimdFloatMult                 0      0.00%     58.33% # Class of executed instruction
system.cpu2.op_class::SimdFloatMultAcc              0      0.00%     58.33% # Class of executed instruction
system.cpu2.op_class::SimdFloatSqrt                 0      0.00%     58.33% # Class of executed instruction
system.cpu2.op_class::SimdReduceAdd                 0      0.00%     58.33% # Class of executed instruction
system.cpu2.op_class::SimdReduceAlu                 0      0.00%     58.33% # Class of executed instruction
system.cpu2.op_class::SimdReduceCmp                 0      0.00%     58.33% # Class of executed instruction
system.cpu2.op_class::SimdFloatReduceAdd            0      0.00%     58.33% # Class of executed instruction
system.cpu2.op_class::SimdFloatReduceCmp            0      0.00%     58.33% # Class of executed instruction
system.cpu2.op_class::SimdAes                       0      0.00%     58.33% # Class of executed instruction
system.cpu2.op_class::SimdAesMix                    0      0.00%     58.33% # Class of executed instruction
system.cpu2.op_class::SimdSha1Hash                  0      0.00%     58.33% # Class of executed instruction
system.cpu2.op_class::SimdSha1Hash2                 0      0.00%     58.33% # Class of executed instruction
system.cpu2.op_class::SimdSha256Hash                0      0.00%     58.33% # Class of executed instruction
system.cpu2.op_class::SimdSha256Hash2               0      0.00%     58.33% # Class of executed instruction
system.cpu2.op_class::SimdShaSigma2                 0      0.00%     58.33% # Class of executed instruction
system.cpu2.op_class::SimdShaSigma3                 0      0.00%     58.33% # Class of executed instruction
system.cpu2.op_class::SimdPredAlu                   0      0.00%     58.33% # Class of executed instruction
system.cpu2.op_class::MemRead                       7     29.17%     87.50% # Class of executed instruction
system.cpu2.op_class::MemWrite                      3     12.50%    100.00% # Class of executed instruction
system.cpu2.op_class::FloatMemRead                  0      0.00%    100.00% # Class of executed instruction
system.cpu2.op_class::FloatMemWrite                 0      0.00%    100.00% # Class of executed instruction
system.cpu2.op_class::IprAccess                     0      0.00%    100.00% # Class of executed instruction
system.cpu2.op_class::InstPrefetch                  0      0.00%    100.00% # Class of executed instruction
system.cpu2.op_class::total                        24                       # Class of executed instruction
system.cpu2.workload.numSyscalls                    0                       # Number of system calls
system.cpu3.Branches                                1                       # Number of branches fetched
system.cpu3.committedInsts                         13                       # Number of instructions committed
system.cpu3.committedOps                           20                       # Number of ops (including micro ops) committed
system.cpu3.idle_fraction                           0                       # Percentage of idle cycles
system.cpu3.l2bus.snoop_filter.hit_multi_requests            0                       # Number of requests hitting in the snoop filter with multiple (>1) holders of the requested data.
system.cpu3.l2bus.snoop_filter.hit_multi_snoops            0                       # Number of snoops hitting in the snoop filter with multiple (>1) holders of the requested data.
system.cpu3.l2bus.snoop_filter.hit_single_requests      1957271                       # Number of requests hitting in the snoop filter with a single holder of the requested data.
system.cpu3.l2bus.snoop_filter.hit_single_snoops          285                       # Number of snoops hitting in the snoop filter with a single holder of the requested data.
system.cpu3.l2bus.snoop_filter.tot_requests      3910231                       # Total number of requests made to the snoop filter.
system.cpu3.l2bus.snoop_filter.tot_snoops          285                       # Total number of snoops made to the snoop filter.
system.cpu3.mmucache.mmubus.snoop_filter.hit_multi_requests            0                       # Number of requests hitting in the snoop filter with multiple (>1) holders of the requested data.
system.cpu3.mmucache.mmubus.snoop_filter.hit_multi_snoops            0                       # Number of snoops hitting in the snoop filter with multiple (>1) holders of the requested data.
system.cpu3.mmucache.mmubus.snoop_filter.hit_single_requests            0                       # Number of requests hitting in the snoop filter with a single holder of the requested data.
system.cpu3.mmucache.mmubus.snoop_filter.hit_single_snoops            0                       # Number of snoops hitting in the snoop filter with a single holder of the requested data.
system.cpu3.mmucache.mmubus.snoop_filter.tot_requests            0                       # Total number of requests made to the snoop filter.
system.cpu3.mmucache.mmubus.snoop_filter.tot_snoops            0                       # Total number of snoops made to the snoop filter.
system.cpu3.not_idle_fraction                       1                       # Percentage of non-idle cycles
system.cpu3.numCycles                              30                       # number of cpu cycles simulated
system.cpu3.numWorkItemsCompleted                   0                       # number of work items this cpu completed
system.cpu3.numWorkItemsStarted                     0                       # number of work items this cpu started
system.cpu3.num_busy_cycles                        30                       # Number of busy cycles
system.cpu3.num_cc_register_reads                   7                       # number of times the CC registers were read
system.cpu3.num_cc_register_writes                  2                       # number of times the CC registers were written
system.cpu3.num_conditional_control_insts            1                       # number of instructions that are conditional controls
system.cpu3.num_fp_alu_accesses                    13                       # Number of float alu accesses
system.cpu3.num_fp_insts                           13                       # number of float instructions
system.cpu3.num_fp_register_reads                  19                       # number of times the floating registers were read
system.cpu3.num_fp_register_writes                 12                       # number of times the floating registers were written
system.cpu3.num_func_calls                          0                       # number of times a function call or return occured
system.cpu3.num_idle_cycles                         0                       # Number of idle cycles
system.cpu3.num_int_alu_accesses                   13                       # Number of integer alu accesses
system.cpu3.num_int_insts                          13                       # number of integer instructions
system.cpu3.num_int_register_reads                 28                       # number of times the integer registers were read
system.cpu3.num_int_register_writes                 6                       # number of times the integer registers were written
system.cpu3.num_load_insts                          7                       # Number of load instructions
system.cpu3.num_mem_refs                            7                       # number of memory refs
system.cpu3.num_store_insts                         0                       # Number of store instructions
system.cpu3.num_vec_alu_accesses                    0                       # Number of vector alu accesses
system.cpu3.num_vec_insts                           0                       # number of vector instructions
system.cpu3.num_vec_register_reads                  0                       # number of times the vector registers were read
system.cpu3.num_vec_register_writes                 0                       # number of times the vector registers were written
system.cpu3.op_class::No_OpClass                    0      0.00%      0.00% # Class of executed instruction
system.cpu3.op_class::IntAlu                        7     35.00%     35.00% # Class of executed instruction
system.cpu3.op_class::IntMult                       0      0.00%     35.00% # Class of executed instruction
system.cpu3.op_class::IntDiv                        0      0.00%     35.00% # Class of executed instruction
system.cpu3.op_class::FloatAdd                      0      0.00%     35.00% # Class of executed instruction
system.cpu3.op_class::FloatCmp                      0      0.00%     35.00% # Class of executed instruction
system.cpu3.op_class::FloatCvt                      0      0.00%     35.00% # Class of executed instruction
system.cpu3.op_class::FloatMult                     0      0.00%     35.00% # Class of executed instruction
system.cpu3.op_class::FloatMultAcc                  0      0.00%     35.00% # Class of executed instruction
system.cpu3.op_class::FloatDiv                      0      0.00%     35.00% # Class of executed instruction
system.cpu3.op_class::FloatMisc                     0      0.00%     35.00% # Class of executed instruction
system.cpu3.op_class::FloatSqrt                     0      0.00%     35.00% # Class of executed instruction
system.cpu3.op_class::SimdAdd                       0      0.00%     35.00% # Class of executed instruction
system.cpu3.op_class::SimdAddAcc                    0      0.00%     35.00% # Class of executed instruction
system.cpu3.op_class::SimdAlu                       0      0.00%     35.00% # Class of executed instruction
system.cpu3.op_class::SimdCmp                       0      0.00%     35.00% # Class of executed instruction
system.cpu3.op_class::SimdCvt                       0      0.00%     35.00% # Class of executed instruction
system.cpu3.op_class::SimdMisc                      0      0.00%     35.00% # Class of executed instruction
system.cpu3.op_class::SimdMult                      0      0.00%     35.00% # Class of executed instruction
system.cpu3.op_class::SimdMultAcc                   0      0.00%     35.00% # Class of executed instruction
system.cpu3.op_class::SimdShift                     0      0.00%     35.00% # Class of executed instruction
system.cpu3.op_class::SimdShiftAcc                  0      0.00%     35.00% # Class of executed instruction
system.cpu3.op_class::SimdDiv                       0      0.00%     35.00% # Class of executed instruction
system.cpu3.op_class::SimdSqrt                      0      0.00%     35.00% # Class of executed instruction
system.cpu3.op_class::SimdFloatAdd                  2     10.00%     45.00% # Class of executed instruction
system.cpu3.op_class::SimdFloatAlu                  0      0.00%     45.00% # Class of executed instruction
system.cpu3.op_class::SimdFloatCmp                  0      0.00%     45.00% # Class of executed instruction
system.cpu3.op_class::SimdFloatCvt                  1      5.00%     50.00% # Class of executed instruction
system.cpu3.op_class::SimdFloatDiv                  1      5.00%     55.00% # Class of executed instruction
system.cpu3.op_class::SimdFloatMisc                 0      0.00%     55.00% # Class of executed instruction
system.cpu3.op_class::SimdFloatMult                 2     10.00%     65.00% # Class of executed instruction
system.cpu3.op_class::SimdFloatMultAcc              0      0.00%     65.00% # Class of executed instruction
system.cpu3.op_class::SimdFloatSqrt                 0      0.00%     65.00% # Class of executed instruction
system.cpu3.op_class::SimdReduceAdd                 0      0.00%     65.00% # Class of executed instruction
system.cpu3.op_class::SimdReduceAlu                 0      0.00%     65.00% # Class of executed instruction
system.cpu3.op_class::SimdReduceCmp                 0      0.00%     65.00% # Class of executed instruction
system.cpu3.op_class::SimdFloatReduceAdd            0      0.00%     65.00% # Class of executed instruction
system.cpu3.op_class::SimdFloatReduceCmp            0      0.00%     65.00% # Class of executed instruction
system.cpu3.op_class::SimdAes                       0      0.00%     65.00% # Class of executed instruction
system.cpu3.op_class::SimdAesMix                    0      0.00%     65.00% # Class of executed instruction
system.cpu3.op_class::SimdSha1Hash                  0      0.00%     65.00% # Class of executed instruction
system.cpu3.op_class::SimdSha1Hash2                 0      0.00%     65.00% # Class of executed instruction
system.cpu3.op_class::SimdSha256Hash                0      0.00%     65.00% # Class of executed instruction
system.cpu3.op_class::SimdSha256Hash2               0      0.00%     65.00% # Class of executed instruction
system.cpu3.op_class::SimdShaSigma2                 0      0.00%     65.00% # Class of executed instruction
system.cpu3.op_class::SimdShaSigma3                 0      0.00%     65.00% # Class of executed instruction
system.cpu3.op_class::SimdPredAlu                   0      0.00%     65.00% # Class of executed instruction
system.cpu3.op_class::MemRead                       1      5.00%     70.00% # Class of executed instruction
system.cpu3.op_class::MemWrite                      0      0.00%     70.00% # Class of executed instruction
system.cpu3.op_class::FloatMemRead                  6     30.00%    100.00% # Class of executed instruction
system.cpu3.op_class::FloatMemWrite                 0      0.00%    100.00% # Class of executed instruction
system.cpu3.op_class::IprAccess                     0      0.00%    100.00% # Class of executed instruction
system.cpu3.op_class::InstPrefetch                  0      0.00%    100.00% # Class of executed instruction
system.cpu3.op_class::total                        20                       # Class of executed instruction
system.cpu3.workload.numSyscalls                    0                       # Number of system calls
system.l3bus.snoop_filter.hit_multi_requests            0                       # Number of requests hitting in the snoop filter with multiple (>1) holders of the requested data.
system.l3bus.snoop_filter.hit_multi_snoops            0                       # Number of snoops hitting in the snoop filter with multiple (>1) holders of the requested data.
system.l3bus.snoop_filter.hit_single_requests      1369383                       # Number of requests hitting in the snoop filter with a single holder of the requested data.
system.l3bus.snoop_filter.hit_single_snoops            0                       # Number of snoops hitting in the snoop filter with a single holder of the requested data.
system.l3bus.snoop_filter.tot_requests        2754238                       # Total number of requests made to the snoop filter.
system.l3bus.snoop_filter.tot_snoops                0                       # Total number of snoops made to the snoop filter.
system.membus.snoop_filter.hit_multi_requests            0                       # Number of requests hitting in the snoop filter with multiple (>1) holders of the requested data.
system.membus.snoop_filter.hit_multi_snoops            0                       # Number of snoops hitting in the snoop filter with multiple (>1) holders of the requested data.
system.membus.snoop_filter.hit_single_requests       559345                       # Number of requests hitting in the snoop filter with a single holder of the requested data.
system.membus.snoop_filter.hit_single_snoops            0                       # Number of snoops hitting in the snoop filter with a single holder of the requested data.
system.membus.snoop_filter.tot_requests       1198351                       # Total number of requests made to the snoop filter.
system.membus.snoop_filter.tot_snoops               0                       # Total number of snoops made to the snoop filter.
system.switch_cpus0.cc_regfile_reads         50627826                       # number of cc regfile reads
system.switch_cpus0.cc_regfile_writes        45704987                       # number of cc regfile writes
system.switch_cpus0.committedInsts          126946788                       # Number of Instructions Simulated
system.switch_cpus0.committedOps            230035845                       # Number of Ops (including micro ops) Simulated
system.switch_cpus0.cpi                      0.787716                       # CPI: Cycles Per Instruction
system.switch_cpus0.cpi_total                0.787716                       # CPI: Total CPI of All Threads
system.switch_cpus0.fp_regfile_reads        170325927                       # number of floating regfile reads
system.switch_cpus0.fp_regfile_writes       105857713                       # number of floating regfile writes
system.switch_cpus0.idleCycles                 384637                       # Total number of cycles that the CPU has spent unscheduled due to idling
system.switch_cpus0.iew.branchMispredicts       110288                       # Number of branch mispredicts detected at execute
system.switch_cpus0.iew.exec_branches        12895648                       # Number of branches executed
system.switch_cpus0.iew.exec_nop                    0                       # number of nop insts executed
system.switch_cpus0.iew.exec_rate            2.342766                       # Inst execution rate
system.switch_cpus0.iew.exec_refs            46969810                       # number of memory reference insts executed
system.switch_cpus0.iew.exec_stores          10836101                       # Number of stores executed
system.switch_cpus0.iew.exec_swp                    0                       # number of swp insts executed
system.switch_cpus0.iew.iewBlockCycles        2012830                       # Number of cycles IEW is blocking
system.switch_cpus0.iew.iewDispLoadInsts     35072105                       # Number of dispatched load instructions
system.switch_cpus0.iew.iewDispNonSpecInsts          100                       # Number of dispatched non-speculative instructions
system.switch_cpus0.iew.iewDispSquashedInsts         6738                       # Number of squashed instructions skipped by dispatch
system.switch_cpus0.iew.iewDispStoreInsts     11014824                       # Number of dispatched store instructions
system.switch_cpus0.iew.iewDispatchedInsts    234754773                       # Number of instructions dispatched to IQ
system.switch_cpus0.iew.iewExecLoadInsts     36133709                       # Number of load instructions executed
system.switch_cpus0.iew.iewExecSquashedInsts       188984                       # Number of squashed instructions skipped in execute
system.switch_cpus0.iew.iewExecutedInsts    234271849                       # Number of executed instructions
system.switch_cpus0.iew.iewIQFullEvents          5229                       # Number of times the IQ has become full, causing a stall
system.switch_cpus0.iew.iewIdleCycles               0                       # Number of cycles IEW is idle
system.switch_cpus0.iew.iewLSQFullEvents     12207584                       # Number of times the LSQ has become full, causing a stall
system.switch_cpus0.iew.iewSquashCycles        111629                       # Number of cycles IEW is squashing
system.switch_cpus0.iew.iewUnblockCycles     12274768                       # Number of cycles IEW is unblocking
system.switch_cpus0.iew.memOrderViolationEvents         2733                       # Number of memory order violations
system.switch_cpus0.iew.predictedNotTakenIncorrect        72090                       # Number of branches that were predicted not taken incorrectly
system.switch_cpus0.iew.predictedTakenIncorrect        38198                       # Number of branches that were predicted taken incorrectly
system.switch_cpus0.iew.wb_consumers        280012721                       # num instructions consuming a value
system.switch_cpus0.iew.wb_count            232890895                       # cumulative count of insts written-back
system.switch_cpus0.iew.wb_fanout            0.600586                       # average fanout of values written-back
system.switch_cpus0.iew.wb_producers        168171623                       # num instructions producing a value
system.switch_cpus0.iew.wb_rate              2.328956                       # insts written-back per cycle
system.switch_cpus0.iew.wb_sent             232994479                       # cumulative count of insts sent to commit
system.switch_cpus0.int_regfile_reads       215190175                       # number of integer regfile reads
system.switch_cpus0.int_regfile_writes      102767631                       # number of integer regfile writes
system.switch_cpus0.ipc                      1.269493                       # IPC: Instructions Per Cycle
system.switch_cpus0.ipc_total                1.269493                       # IPC: Total IPC of All Threads
system.switch_cpus0.iq.FU_type_0::No_OpClass       115691      0.05%      0.05% # Type of FU issued
system.switch_cpus0.iq.FU_type_0::IntAlu    113584426     48.44%     48.49% # Type of FU issued
system.switch_cpus0.iq.FU_type_0::IntMult        25925      0.01%     48.51% # Type of FU issued
system.switch_cpus0.iq.FU_type_0::IntDiv            0      0.00%     48.51% # Type of FU issued
system.switch_cpus0.iq.FU_type_0::FloatAdd     18106694      7.72%     56.23% # Type of FU issued
system.switch_cpus0.iq.FU_type_0::FloatCmp            0      0.00%     56.23% # Type of FU issued
system.switch_cpus0.iq.FU_type_0::FloatCvt            0      0.00%     56.23% # Type of FU issued
system.switch_cpus0.iq.FU_type_0::FloatMult            0      0.00%     56.23% # Type of FU issued
system.switch_cpus0.iq.FU_type_0::FloatMultAcc            0      0.00%     56.23% # Type of FU issued
system.switch_cpus0.iq.FU_type_0::FloatDiv            0      0.00%     56.23% # Type of FU issued
system.switch_cpus0.iq.FU_type_0::FloatMisc            0      0.00%     56.23% # Type of FU issued
system.switch_cpus0.iq.FU_type_0::FloatSqrt            0      0.00%     56.23% # Type of FU issued
system.switch_cpus0.iq.FU_type_0::SimdAdd            0      0.00%     56.23% # Type of FU issued
system.switch_cpus0.iq.FU_type_0::SimdAddAcc            0      0.00%     56.23% # Type of FU issued
system.switch_cpus0.iq.FU_type_0::SimdAlu      7356499      3.14%     59.37% # Type of FU issued
system.switch_cpus0.iq.FU_type_0::SimdCmp            0      0.00%     59.37% # Type of FU issued
system.switch_cpus0.iq.FU_type_0::SimdCvt            0      0.00%     59.37% # Type of FU issued
system.switch_cpus0.iq.FU_type_0::SimdMisc      6217563      2.65%     62.02% # Type of FU issued
system.switch_cpus0.iq.FU_type_0::SimdMult            0      0.00%     62.02% # Type of FU issued
system.switch_cpus0.iq.FU_type_0::SimdMultAcc            0      0.00%     62.02% # Type of FU issued
system.switch_cpus0.iq.FU_type_0::SimdShift            0      0.00%     62.02% # Type of FU issued
system.switch_cpus0.iq.FU_type_0::SimdShiftAcc            0      0.00%     62.02% # Type of FU issued
system.switch_cpus0.iq.FU_type_0::SimdDiv            0      0.00%     62.02% # Type of FU issued
system.switch_cpus0.iq.FU_type_0::SimdSqrt            0      0.00%     62.02% # Type of FU issued
system.switch_cpus0.iq.FU_type_0::SimdFloatAdd     18231460      7.78%     69.79% # Type of FU issued
system.switch_cpus0.iq.FU_type_0::SimdFloatAlu            0      0.00%     69.79% # Type of FU issued
system.switch_cpus0.iq.FU_type_0::SimdFloatCmp        50780      0.02%     69.82% # Type of FU issued
system.switch_cpus0.iq.FU_type_0::SimdFloatCvt      4749483      2.03%     71.84% # Type of FU issued
system.switch_cpus0.iq.FU_type_0::SimdFloatDiv      1226500      0.52%     72.36% # Type of FU issued
system.switch_cpus0.iq.FU_type_0::SimdFloatMisc            0      0.00%     72.36% # Type of FU issued
system.switch_cpus0.iq.FU_type_0::SimdFloatMult     17748067      7.57%     79.93% # Type of FU issued
system.switch_cpus0.iq.FU_type_0::SimdFloatMultAcc            0      0.00%     79.93% # Type of FU issued
system.switch_cpus0.iq.FU_type_0::SimdFloatSqrt         4234      0.00%     79.94% # Type of FU issued
system.switch_cpus0.iq.FU_type_0::SimdReduceAdd            0      0.00%     79.94% # Type of FU issued
system.switch_cpus0.iq.FU_type_0::SimdReduceAlu            0      0.00%     79.94% # Type of FU issued
system.switch_cpus0.iq.FU_type_0::SimdReduceCmp            0      0.00%     79.94% # Type of FU issued
system.switch_cpus0.iq.FU_type_0::SimdFloatReduceAdd            0      0.00%     79.94% # Type of FU issued
system.switch_cpus0.iq.FU_type_0::SimdFloatReduceCmp            0      0.00%     79.94% # Type of FU issued
system.switch_cpus0.iq.FU_type_0::SimdAes            0      0.00%     79.94% # Type of FU issued
system.switch_cpus0.iq.FU_type_0::SimdAesMix            0      0.00%     79.94% # Type of FU issued
system.switch_cpus0.iq.FU_type_0::SimdSha1Hash            0      0.00%     79.94% # Type of FU issued
system.switch_cpus0.iq.FU_type_0::SimdSha1Hash2            0      0.00%     79.94% # Type of FU issued
system.switch_cpus0.iq.FU_type_0::SimdSha256Hash            0      0.00%     79.94% # Type of FU issued
system.switch_cpus0.iq.FU_type_0::SimdSha256Hash2            0      0.00%     79.94% # Type of FU issued
system.switch_cpus0.iq.FU_type_0::SimdShaSigma2            0      0.00%     79.94% # Type of FU issued
system.switch_cpus0.iq.FU_type_0::SimdShaSigma3            0      0.00%     79.94% # Type of FU issued
system.switch_cpus0.iq.FU_type_0::SimdPredAlu            0      0.00%     79.94% # Type of FU issued
system.switch_cpus0.iq.FU_type_0::MemRead      9459884      4.03%     83.97% # Type of FU issued
system.switch_cpus0.iq.FU_type_0::MemWrite      7354420      3.14%     87.11% # Type of FU issued
system.switch_cpus0.iq.FU_type_0::FloatMemRead     26727646     11.40%     98.51% # Type of FU issued
system.switch_cpus0.iq.FU_type_0::FloatMemWrite      3501561      1.49%    100.00% # Type of FU issued
system.switch_cpus0.iq.FU_type_0::IprAccess            0      0.00%    100.00% # Type of FU issued
system.switch_cpus0.iq.FU_type_0::InstPrefetch            0      0.00%    100.00% # Type of FU issued
system.switch_cpus0.iq.FU_type_0::total     234460833                       # Type of FU issued
system.switch_cpus0.iq.fp_alu_accesses      116671510                       # Number of floating point alu accesses
system.switch_cpus0.iq.fp_inst_queue_reads    232897985                       # Number of floating instruction queue reads
system.switch_cpus0.iq.fp_inst_queue_wakeup_accesses    114865443                       # Number of floating instruction queue wakeup accesses
system.switch_cpus0.iq.fp_inst_queue_writes    118156893                       # Number of floating instruction queue writes
system.switch_cpus0.iq.fu_busy_cnt            2068862                       # FU busy when requested
system.switch_cpus0.iq.fu_busy_rate          0.008824                       # FU busy rate (busy events/executed inst)
system.switch_cpus0.iq.fu_full::No_OpClass            0      0.00%      0.00% # attempts to use FU when none available
system.switch_cpus0.iq.fu_full::IntAlu        1161206     56.13%     56.13% # attempts to use FU when none available
system.switch_cpus0.iq.fu_full::IntMult             0      0.00%     56.13% # attempts to use FU when none available
system.switch_cpus0.iq.fu_full::IntDiv              0      0.00%     56.13% # attempts to use FU when none available
system.switch_cpus0.iq.fu_full::FloatAdd        20674      1.00%     57.13% # attempts to use FU when none available
system.switch_cpus0.iq.fu_full::FloatCmp            0      0.00%     57.13% # attempts to use FU when none available
system.switch_cpus0.iq.fu_full::FloatCvt            0      0.00%     57.13% # attempts to use FU when none available
system.switch_cpus0.iq.fu_full::FloatMult            0      0.00%     57.13% # attempts to use FU when none available
system.switch_cpus0.iq.fu_full::FloatMultAcc            0      0.00%     57.13% # attempts to use FU when none available
system.switch_cpus0.iq.fu_full::FloatDiv            0      0.00%     57.13% # attempts to use FU when none available
system.switch_cpus0.iq.fu_full::FloatMisc            0      0.00%     57.13% # attempts to use FU when none available
system.switch_cpus0.iq.fu_full::FloatSqrt            0      0.00%     57.13% # attempts to use FU when none available
system.switch_cpus0.iq.fu_full::SimdAdd             0      0.00%     57.13% # attempts to use FU when none available
system.switch_cpus0.iq.fu_full::SimdAddAcc            0      0.00%     57.13% # attempts to use FU when none available
system.switch_cpus0.iq.fu_full::SimdAlu        225970     10.92%     68.05% # attempts to use FU when none available
system.switch_cpus0.iq.fu_full::SimdCmp             0      0.00%     68.05% # attempts to use FU when none available
system.switch_cpus0.iq.fu_full::SimdCvt             0      0.00%     68.05% # attempts to use FU when none available
system.switch_cpus0.iq.fu_full::SimdMisc        21600      1.04%     69.09% # attempts to use FU when none available
system.switch_cpus0.iq.fu_full::SimdMult            0      0.00%     69.09% # attempts to use FU when none available
system.switch_cpus0.iq.fu_full::SimdMultAcc            0      0.00%     69.09% # attempts to use FU when none available
system.switch_cpus0.iq.fu_full::SimdShift            0      0.00%     69.09% # attempts to use FU when none available
system.switch_cpus0.iq.fu_full::SimdShiftAcc            0      0.00%     69.09% # attempts to use FU when none available
system.switch_cpus0.iq.fu_full::SimdDiv             0      0.00%     69.09% # attempts to use FU when none available
system.switch_cpus0.iq.fu_full::SimdSqrt            0      0.00%     69.09% # attempts to use FU when none available
system.switch_cpus0.iq.fu_full::SimdFloatAdd        20608      1.00%     70.09% # attempts to use FU when none available
system.switch_cpus0.iq.fu_full::SimdFloatAlu            0      0.00%     70.09% # attempts to use FU when none available
system.switch_cpus0.iq.fu_full::SimdFloatCmp            0      0.00%     70.09% # attempts to use FU when none available
system.switch_cpus0.iq.fu_full::SimdFloatCvt        25496      1.23%     71.32% # attempts to use FU when none available
system.switch_cpus0.iq.fu_full::SimdFloatDiv         1606      0.08%     71.40% # attempts to use FU when none available
system.switch_cpus0.iq.fu_full::SimdFloatMisc            0      0.00%     71.40% # attempts to use FU when none available
system.switch_cpus0.iq.fu_full::SimdFloatMult        22542      1.09%     72.49% # attempts to use FU when none available
system.switch_cpus0.iq.fu_full::SimdFloatMultAcc            0      0.00%     72.49% # attempts to use FU when none available
system.switch_cpus0.iq.fu_full::SimdFloatSqrt            0      0.00%     72.49% # attempts to use FU when none available
system.switch_cpus0.iq.fu_full::SimdReduceAdd            0      0.00%     72.49% # attempts to use FU when none available
system.switch_cpus0.iq.fu_full::SimdReduceAlu            0      0.00%     72.49% # attempts to use FU when none available
system.switch_cpus0.iq.fu_full::SimdReduceCmp            0      0.00%     72.49% # attempts to use FU when none available
system.switch_cpus0.iq.fu_full::SimdFloatReduceAdd            0      0.00%     72.49% # attempts to use FU when none available
system.switch_cpus0.iq.fu_full::SimdFloatReduceCmp            0      0.00%     72.49% # attempts to use FU when none available
system.switch_cpus0.iq.fu_full::SimdAes             0      0.00%     72.49% # attempts to use FU when none available
system.switch_cpus0.iq.fu_full::SimdAesMix            0      0.00%     72.49% # attempts to use FU when none available
system.switch_cpus0.iq.fu_full::SimdSha1Hash            0      0.00%     72.49% # attempts to use FU when none available
system.switch_cpus0.iq.fu_full::SimdSha1Hash2            0      0.00%     72.49% # attempts to use FU when none available
system.switch_cpus0.iq.fu_full::SimdSha256Hash            0      0.00%     72.49% # attempts to use FU when none available
system.switch_cpus0.iq.fu_full::SimdSha256Hash2            0      0.00%     72.49% # attempts to use FU when none available
system.switch_cpus0.iq.fu_full::SimdShaSigma2            0      0.00%     72.49% # attempts to use FU when none available
system.switch_cpus0.iq.fu_full::SimdShaSigma3            0      0.00%     72.49% # attempts to use FU when none available
system.switch_cpus0.iq.fu_full::SimdPredAlu            0      0.00%     72.49% # attempts to use FU when none available
system.switch_cpus0.iq.fu_full::MemRead        318157     15.38%     87.87% # attempts to use FU when none available
system.switch_cpus0.iq.fu_full::MemWrite       148524      7.18%     95.05% # attempts to use FU when none available
system.switch_cpus0.iq.fu_full::FloatMemRead        72875      3.52%     98.57% # attempts to use FU when none available
system.switch_cpus0.iq.fu_full::FloatMemWrite        29604      1.43%    100.00% # attempts to use FU when none available
system.switch_cpus0.iq.fu_full::IprAccess            0      0.00%    100.00% # attempts to use FU when none available
system.switch_cpus0.iq.fu_full::InstPrefetch            0      0.00%    100.00% # attempts to use FU when none available
system.switch_cpus0.iq.int_alu_accesses     119742494                       # Number of integer alu accesses
system.switch_cpus0.iq.int_inst_queue_reads    337723740                       # Number of integer instruction queue reads
system.switch_cpus0.iq.int_inst_queue_wakeup_accesses    118025452                       # Number of integer instruction queue wakeup accesses
system.switch_cpus0.iq.int_inst_queue_writes    121319534                       # Number of integer instruction queue writes
system.switch_cpus0.iq.iqInstsAdded         234751146                       # Number of instructions added to the IQ (excludes non-spec)
system.switch_cpus0.iq.iqInstsIssued        234460833                       # Number of instructions issued
system.switch_cpus0.iq.iqNonSpecInstsAdded         3627                       # Number of non-speculative instructions added to the IQ
system.switch_cpus0.iq.iqSquashedInstsExamined      4718928                       # Number of squashed instructions iterated over during squash; mainly for profiling
system.switch_cpus0.iq.iqSquashedInstsIssued        17849                       # Number of squashed instructions issued
system.switch_cpus0.iq.iqSquashedNonSpecRemoved         3204                       # Number of squashed non-spec instructions that were removed
system.switch_cpus0.iq.iqSquashedOperandsExamined      5253531                       # Number of squashed operands that are examined and possibly removed from graph
system.switch_cpus0.iq.issued_per_cycle::samples     99613348                       # Number of insts issued each cycle
system.switch_cpus0.iq.issued_per_cycle::mean     2.353709                       # Number of insts issued each cycle
system.switch_cpus0.iq.issued_per_cycle::stdev     2.529229                       # Number of insts issued each cycle
system.switch_cpus0.iq.issued_per_cycle::underflows            0      0.00%      0.00% # Number of insts issued each cycle
system.switch_cpus0.iq.issued_per_cycle::0     41522272     41.68%     41.68% # Number of insts issued each cycle
system.switch_cpus0.iq.issued_per_cycle::1      6531294      6.56%     48.24% # Number of insts issued each cycle
system.switch_cpus0.iq.issued_per_cycle::2      9371797      9.41%     57.65% # Number of insts issued each cycle
system.switch_cpus0.iq.issued_per_cycle::3      9716168      9.75%     67.40% # Number of insts issued each cycle
system.switch_cpus0.iq.issued_per_cycle::4      9466305      9.50%     76.91% # Number of insts issued each cycle
system.switch_cpus0.iq.issued_per_cycle::5      8074924      8.11%     85.01% # Number of insts issued each cycle
system.switch_cpus0.iq.issued_per_cycle::6      6714961      6.74%     91.75% # Number of insts issued each cycle
system.switch_cpus0.iq.issued_per_cycle::7      4217181      4.23%     95.99% # Number of insts issued each cycle
system.switch_cpus0.iq.issued_per_cycle::8      3998446      4.01%    100.00% # Number of insts issued each cycle
system.switch_cpus0.iq.issued_per_cycle::overflows            0      0.00%    100.00% # Number of insts issued each cycle
system.switch_cpus0.iq.issued_per_cycle::min_value            0                       # Number of insts issued each cycle
system.switch_cpus0.iq.issued_per_cycle::max_value            8                       # Number of insts issued each cycle
system.switch_cpus0.iq.issued_per_cycle::total     99613348                       # Number of insts issued each cycle
system.switch_cpus0.iq.rate                  2.344656                       # Inst issue rate
system.switch_cpus0.iq.vec_alu_accesses             0                       # Number of vector alu accesses
system.switch_cpus0.iq.vec_inst_queue_reads            0                       # Number of vector instruction queue reads
system.switch_cpus0.iq.vec_inst_queue_wakeup_accesses            0                       # Number of vector instruction queue wakeup accesses
system.switch_cpus0.iq.vec_inst_queue_writes            0                       # Number of vector instruction queue writes
system.switch_cpus0.memDep0.conflictingLoads      2793173                       # Number of conflicting loads.
system.switch_cpus0.memDep0.conflictingStores       518428                       # Number of conflicting stores.
system.switch_cpus0.memDep0.insertedLoads     35072105                       # Number of loads inserted to the mem dependence unit.
system.switch_cpus0.memDep0.insertedStores     11014824                       # Number of stores inserted to the mem dependence unit.
system.switch_cpus0.misc_regfile_reads       89489456                       # number of misc regfile reads
system.switch_cpus0.misc_regfile_writes             1                       # number of misc regfile writes
system.switch_cpus0.numCycles                99997985                       # number of cpu cycles simulated
system.switch_cpus0.numWorkItemsCompleted            0                       # number of work items this cpu completed
system.switch_cpus0.numWorkItemsStarted             0                       # number of work items this cpu started
system.switch_cpus0.timesIdled                  11272                       # Number of times that the entire CPU went into an idle state and unscheduled itself
system.switch_cpus1.cc_regfile_reads        204810942                       # number of cc regfile reads
system.switch_cpus1.cc_regfile_writes       100704013                       # number of cc regfile writes
system.switch_cpus1.committedInsts          250000003                       # Number of Instructions Simulated
system.switch_cpus1.committedOps            450562993                       # Number of Ops (including micro ops) Simulated
system.switch_cpus1.cpi                      0.399992                       # CPI: Cycles Per Instruction
system.switch_cpus1.cpi_total                0.399992                       # CPI: Total CPI of All Threads
system.switch_cpus1.fp_regfile_reads        147777982                       # number of floating regfile reads
system.switch_cpus1.fp_regfile_writes        84846454                       # number of floating regfile writes
system.switch_cpus1.idleCycles                  96665                       # Total number of cycles that the CPU has spent unscheduled due to idling
system.switch_cpus1.iew.branchMispredicts      1114763                       # Number of branch mispredicts detected at execute
system.switch_cpus1.iew.exec_branches        46357172                       # Number of branches executed
system.switch_cpus1.iew.exec_nop                    0                       # number of nop insts executed
system.switch_cpus1.iew.exec_rate            4.809805                       # Inst execution rate
system.switch_cpus1.iew.exec_refs           140947392                       # number of memory reference insts executed
system.switch_cpus1.iew.exec_stores          42745705                       # Number of stores executed
system.switch_cpus1.iew.exec_swp                    0                       # number of swp insts executed
system.switch_cpus1.iew.iewBlockCycles        6396942                       # Number of cycles IEW is blocking
system.switch_cpus1.iew.iewDispLoadInsts    102948911                       # Number of dispatched load instructions
system.switch_cpus1.iew.iewDispNonSpecInsts            6                       # Number of dispatched non-speculative instructions
system.switch_cpus1.iew.iewDispSquashedInsts          391                       # Number of squashed instructions skipped by dispatch
system.switch_cpus1.iew.iewDispStoreInsts     45389262                       # Number of dispatched store instructions
system.switch_cpus1.iew.iewDispatchedInsts    503503303                       # Number of instructions dispatched to IQ
system.switch_cpus1.iew.iewExecLoadInsts     98201687                       # Number of load instructions executed
system.switch_cpus1.iew.iewExecSquashedInsts      3007578                       # Number of squashed instructions skipped in execute
system.switch_cpus1.iew.iewExecutedInsts    480970852                       # Number of executed instructions
system.switch_cpus1.iew.iewIQFullEvents          9606                       # Number of times the IQ has become full, causing a stall
system.switch_cpus1.iew.iewIdleCycles               0                       # Number of cycles IEW is idle
system.switch_cpus1.iew.iewLSQFullEvents       197007                       # Number of times the LSQ has become full, causing a stall
system.switch_cpus1.iew.iewSquashCycles        996888                       # Number of cycles IEW is squashing
system.switch_cpus1.iew.iewUnblockCycles       211191                       # Number of cycles IEW is unblocking
system.switch_cpus1.iew.memOrderViolationEvents        18566                       # Number of memory order violations
system.switch_cpus1.iew.predictedNotTakenIncorrect       728199                       # Number of branches that were predicted not taken incorrectly
system.switch_cpus1.iew.predictedTakenIncorrect       386564                       # Number of branches that were predicted taken incorrectly
system.switch_cpus1.iew.wb_consumers        629449353                       # num instructions consuming a value
system.switch_cpus1.iew.wb_count            479126217                       # cumulative count of insts written-back
system.switch_cpus1.iew.wb_fanout            0.567195                       # average fanout of values written-back
system.switch_cpus1.iew.wb_producers        357020571                       # num instructions producing a value
system.switch_cpus1.iew.wb_rate              4.791359                       # insts written-back per cycle
system.switch_cpus1.iew.wb_sent             480380488                       # cumulative count of insts sent to commit
system.switch_cpus1.int_regfile_reads       665359787                       # number of integer regfile reads
system.switch_cpus1.int_regfile_writes      299669697                       # number of integer regfile writes
system.switch_cpus1.ipc                      2.500050                       # IPC: Instructions Per Cycle
system.switch_cpus1.ipc_total                2.500050                       # IPC: Total IPC of All Threads
system.switch_cpus1.iq.FU_type_0::No_OpClass      2597858      0.54%      0.54% # Type of FU issued
system.switch_cpus1.iq.FU_type_0::IntAlu    289951499     59.91%     60.45% # Type of FU issued
system.switch_cpus1.iq.FU_type_0::IntMult       973395      0.20%     60.65% # Type of FU issued
system.switch_cpus1.iq.FU_type_0::IntDiv            0      0.00%     60.65% # Type of FU issued
system.switch_cpus1.iq.FU_type_0::FloatAdd      1295050      0.27%     60.92% # Type of FU issued
system.switch_cpus1.iq.FU_type_0::FloatCmp            0      0.00%     60.92% # Type of FU issued
system.switch_cpus1.iq.FU_type_0::FloatCvt            0      0.00%     60.92% # Type of FU issued
system.switch_cpus1.iq.FU_type_0::FloatMult            0      0.00%     60.92% # Type of FU issued
system.switch_cpus1.iq.FU_type_0::FloatMultAcc            0      0.00%     60.92% # Type of FU issued
system.switch_cpus1.iq.FU_type_0::FloatDiv            0      0.00%     60.92% # Type of FU issued
system.switch_cpus1.iq.FU_type_0::FloatMisc            0      0.00%     60.92% # Type of FU issued
system.switch_cpus1.iq.FU_type_0::FloatSqrt            0      0.00%     60.92% # Type of FU issued
system.switch_cpus1.iq.FU_type_0::SimdAdd            0      0.00%     60.92% # Type of FU issued
system.switch_cpus1.iq.FU_type_0::SimdAddAcc            0      0.00%     60.92% # Type of FU issued
system.switch_cpus1.iq.FU_type_0::SimdAlu      3134847      0.65%     61.56% # Type of FU issued
system.switch_cpus1.iq.FU_type_0::SimdCmp            0      0.00%     61.56% # Type of FU issued
system.switch_cpus1.iq.FU_type_0::SimdCvt            0      0.00%     61.56% # Type of FU issued
system.switch_cpus1.iq.FU_type_0::SimdMisc       204017      0.04%     61.61% # Type of FU issued
system.switch_cpus1.iq.FU_type_0::SimdMult            0      0.00%     61.61% # Type of FU issued
system.switch_cpus1.iq.FU_type_0::SimdMultAcc            0      0.00%     61.61% # Type of FU issued
system.switch_cpus1.iq.FU_type_0::SimdShift            0      0.00%     61.61% # Type of FU issued
system.switch_cpus1.iq.FU_type_0::SimdShiftAcc            0      0.00%     61.61% # Type of FU issued
system.switch_cpus1.iq.FU_type_0::SimdDiv            0      0.00%     61.61% # Type of FU issued
system.switch_cpus1.iq.FU_type_0::SimdSqrt            0      0.00%     61.61% # Type of FU issued
system.switch_cpus1.iq.FU_type_0::SimdFloatAdd     17532716      3.62%     65.23% # Type of FU issued
system.switch_cpus1.iq.FU_type_0::SimdFloatAlu            0      0.00%     65.23% # Type of FU issued
system.switch_cpus1.iq.FU_type_0::SimdFloatCmp        60184      0.01%     65.24% # Type of FU issued
system.switch_cpus1.iq.FU_type_0::SimdFloatCvt      7672093      1.59%     66.83% # Type of FU issued
system.switch_cpus1.iq.FU_type_0::SimdFloatDiv       602005      0.12%     66.95% # Type of FU issued
system.switch_cpus1.iq.FU_type_0::SimdFloatMisc            0      0.00%     66.95% # Type of FU issued
system.switch_cpus1.iq.FU_type_0::SimdFloatMult     17421802      3.60%     70.55% # Type of FU issued
system.switch_cpus1.iq.FU_type_0::SimdFloatMultAcc            0      0.00%     70.55% # Type of FU issued
system.switch_cpus1.iq.FU_type_0::SimdFloatSqrt        41994      0.01%     70.56% # Type of FU issued
system.switch_cpus1.iq.FU_type_0::SimdReduceAdd            0      0.00%     70.56% # Type of FU issued
system.switch_cpus1.iq.FU_type_0::SimdReduceAlu            0      0.00%     70.56% # Type of FU issued
system.switch_cpus1.iq.FU_type_0::SimdReduceCmp            0      0.00%     70.56% # Type of FU issued
system.switch_cpus1.iq.FU_type_0::SimdFloatReduceAdd            0      0.00%     70.56% # Type of FU issued
system.switch_cpus1.iq.FU_type_0::SimdFloatReduceCmp            0      0.00%     70.56% # Type of FU issued
system.switch_cpus1.iq.FU_type_0::SimdAes            0      0.00%     70.56% # Type of FU issued
system.switch_cpus1.iq.FU_type_0::SimdAesMix            0      0.00%     70.56% # Type of FU issued
[...]
system.switch_cpus3.commit.numCommittedDist::stdev     3.314178                       # Number of insts commited each cycle
system.switch_cpus3.commit.numCommittedDist::underflows            0      0.00%      0.00% # Number of insts commited each cycle
system.switch_cpus3.commit.numCommittedDist::0     37209468     38.36%     38.36% # Number of insts commited each cycle
system.switch_cpus3.commit.numCommittedDist::1     15150574     15.62%     53.98% # Number of insts commited each cycle
system.switch_cpus3.commit.numCommittedDist::2      4647231      4.79%     58.77% # Number of insts commited each cycle
system.switch_cpus3.commit.numCommittedDist::3      4666441      4.81%     63.58% # Number of insts commited each cycle
system.switch_cpus3.commit.numCommittedDist::4      5898758      6.08%     69.66% # Number of insts commited each cycle
system.switch_cpus3.commit.numCommittedDist::5      1957851      2.02%     71.68% # Number of insts commited each cycle
system.switch_cpus3.commit.numCommittedDist::6      2002439      2.06%     73.75% # Number of insts commited each cycle
system.switch_cpus3.commit.numCommittedDist::7       332714      0.34%     74.09% # Number of insts commited each cycle
system.switch_cpus3.commit.numCommittedDist::8     25134379     25.91%    100.00% # Number of insts commited each cycle
system.switch_cpus3.commit.numCommittedDist::overflows            0      0.00%    100.00% # Number of insts commited each cycle
system.switch_cpus3.commit.numCommittedDist::min_value            0                       # Number of insts commited each cycle
system.switch_cpus3.commit.numCommittedDist::max_value            8                       # Number of insts commited each cycle
system.switch_cpus3.commit.numCommittedDist::total     96999855                       # Number of insts commited each cycle
system.switch_cpus3.commit.instsCommitted    188437265                       # Number of instructions committed
system.switch_cpus3.commit.opsCommitted     287247310                       # Number of ops (including micro ops) committed
system.switch_cpus3.commit.memRefs           56713469                       # Number of memory references committed
system.switch_cpus3.commit.loads             46081706                       # Number of loads committed
system.switch_cpus3.commit.amos                     0                       # Number of atomic instructions committed
system.switch_cpus3.commit.membars                  0                       # Number of memory barriers committed
system.switch_cpus3.commit.branches          18486027                       # Number of branches committed
system.switch_cpus3.commit.vector                   0                       # Number of committed Vector instructions.
system.switch_cpus3.commit.floating         160815785                       # Number of committed floating point instructions.
system.switch_cpus3.commit.integer          173554421                       # Number of committed integer instructions.
system.switch_cpus3.commit.functionCalls       213919                       # Number of function calls committed.
system.switch_cpus3.commit.committedInstType_0::No_OpClass          991      0.00%      0.00% # Class of committed instruction
system.switch_cpus3.commit.committedInstType_0::IntAlu    139807769     48.67%     48.67% # Class of committed instruction
system.switch_cpus3.commit.committedInstType_0::IntMult      1480881      0.52%     49.19% # Class of committed instruction
system.switch_cpus3.commit.committedInstType_0::IntDiv            0      0.00%     49.19% # Class of committed instruction
system.switch_cpus3.commit.committedInstType_0::FloatAdd      2567740      0.89%     50.08% # Class of committed instruction
system.switch_cpus3.commit.committedInstType_0::FloatCmp            0      0.00%     50.08% # Class of committed instruction
system.switch_cpus3.commit.committedInstType_0::FloatCvt            0      0.00%     50.08% # Class of committed instruction
system.switch_cpus3.commit.committedInstType_0::FloatMult            0      0.00%     50.08% # Class of committed instruction
system.switch_cpus3.commit.committedInstType_0::FloatMultAcc            0      0.00%     50.08% # Class of committed instruction
system.switch_cpus3.commit.committedInstType_0::FloatDiv            0      0.00%     50.08% # Class of committed instruction
system.switch_cpus3.commit.committedInstType_0::FloatMisc            0      0.00%     50.08% # Class of committed instruction
system.switch_cpus3.commit.committedInstType_0::FloatSqrt            0      0.00%     50.08% # Class of committed instruction
system.switch_cpus3.commit.committedInstType_0::SimdAdd            0      0.00%     50.08% # Class of committed instruction
system.switch_cpus3.commit.committedInstType_0::SimdAddAcc            0      0.00%     50.08% # Class of committed instruction
system.switch_cpus3.commit.committedInstType_0::SimdAlu      3871218      1.35%     51.43% # Class of committed instruction
system.switch_cpus3.commit.committedInstType_0::SimdCmp            0      0.00%     51.43% # Class of committed instruction
system.switch_cpus3.commit.committedInstType_0::SimdCvt            0      0.00%     51.43% # Class of committed instruction
system.switch_cpus3.commit.committedInstType_0::SimdMisc      1497433      0.52%     51.95% # Class of committed instruction
system.switch_cpus3.commit.committedInstType_0::SimdMult            0      0.00%     51.95% # Class of committed instruction
system.switch_cpus3.commit.committedInstType_0::SimdMultAcc            0      0.00%     51.95% # Class of committed instruction
system.switch_cpus3.commit.committedInstType_0::SimdShift            0      0.00%     51.95% # Class of committed instruction
system.switch_cpus3.commit.committedInstType_0::SimdShiftAcc            0      0.00%     51.95% # Class of committed instruction
system.switch_cpus3.commit.committedInstType_0::SimdDiv            0      0.00%     51.95% # Class of committed instruction
system.switch_cpus3.commit.committedInstType_0::SimdSqrt            0      0.00%     51.95% # Class of committed instruction
system.switch_cpus3.commit.committedInstType_0::SimdFloatAdd     31834354     11.08%     63.03% # Class of committed instruction
system.switch_cpus3.commit.committedInstType_0::SimdFloatAlu            0      0.00%     63.03% # Class of committed instruction
system.switch_cpus3.commit.committedInstType_0::SimdFloatCmp            0      0.00%     63.03% # Class of committed instruction
system.switch_cpus3.commit.committedInstType_0::SimdFloatCvt      9177966      3.20%     66.23% # Class of committed instruction
system.switch_cpus3.commit.committedInstType_0::SimdFloatDiv      1718250      0.60%     66.83% # Class of committed instruction
system.switch_cpus3.commit.committedInstType_0::SimdFloatMisc            0      0.00%     66.83% # Class of committed instruction
system.switch_cpus3.commit.committedInstType_0::SimdFloatMult     37097349     12.91%     79.74% # Class of committed instruction
system.switch_cpus3.commit.committedInstType_0::SimdFloatMultAcc            0      0.00%     79.74% # Class of committed instruction
system.switch_cpus3.commit.committedInstType_0::SimdFloatSqrt      1479890      0.52%     80.26% # Class of committed instruction
system.switch_cpus3.commit.committedInstType_0::SimdReduceAdd            0      0.00%     80.26% # Class of committed instruction
system.switch_cpus3.commit.committedInstType_0::SimdReduceAlu            0      0.00%     80.26% # Class of committed instruction
system.switch_cpus3.commit.committedInstType_0::SimdReduceCmp            0      0.00%     80.26% # Class of committed instruction
system.switch_cpus3.commit.committedInstType_0::SimdFloatReduceAdd            0      0.00%     80.26% # Class of committed instruction
system.switch_cpus3.commit.committedInstType_0::SimdFloatReduceCmp            0      0.00%     80.26% # Class of committed instruction
system.switch_cpus3.commit.committedInstType_0::SimdAes            0      0.00%     80.26% # Class of committed instruction
system.switch_cpus3.commit.committedInstType_0::SimdAesMix            0      0.00%     80.26% # Class of committed instruction
system.switch_cpus3.commit.committedInstType_0::SimdSha1Hash            0      0.00%     80.26% # Class of committed instruction
system.switch_cpus3.commit.committedInstType_0::SimdSha1Hash2            0      0.00%     80.26% # Class of committed instruction
system.switch_cpus3.commit.committedInstType_0::SimdSha256Hash            0      0.00%     80.26% # Class of committed instruction
system.switch_cpus3.commit.committedInstType_0::SimdSha256Hash2            0      0.00%     80.26% # Class of committed instruction
system.switch_cpus3.commit.committedInstType_0::SimdShaSigma2            0      0.00%     80.26% # Class of committed instruction
system.switch_cpus3.commit.committedInstType_0::SimdShaSigma3            0      0.00%     80.26% # Class of committed instruction
system.switch_cpus3.commit.committedInstType_0::SimdPredAlu            0      0.00%     80.26% # Class of committed instruction
system.switch_cpus3.commit.committedInstType_0::MemRead      8089176      2.82%     83.07% # Class of committed instruction
system.switch_cpus3.commit.committedInstType_0::MemWrite      2997839      1.04%     84.12% # Class of committed instruction
system.switch_cpus3.commit.committedInstType_0::FloatMemRead     37992530     13.23%     97.34% # Class of committed instruction
system.switch_cpus3.commit.committedInstType_0::FloatMemWrite      7633924      2.66%    100.00% # Class of committed instruction
system.switch_cpus3.commit.committedInstType_0::IprAccess            0      0.00%    100.00% # Class of committed instruction
system.switch_cpus3.commit.committedInstType_0::InstPrefetch            0      0.00%    100.00% # Class of committed instruction
system.switch_cpus3.commit.committedInstType_0::total    287247310                       # Class of committed instruction
system.switch_cpus3.commit.commitEligibleSamples     25134379                       # number cycles where commit BW limit reached
system.switch_cpus3.decode.idleCycles         8117485                       # Number of cycles decode is idle
system.switch_cpus3.decode.blockedCycles     50742409                       # Number of cycles decode is blocked
system.switch_cpus3.decode.runCycles         25440021                       # Number of cycles decode is running
system.switch_cpus3.decode.unblockCycles     15470369                       # Number of cycles decode is unblocking
system.switch_cpus3.decode.squashCycles        208717                       # Number of cycles decode is squashing
system.switch_cpus3.decode.branchResolved      8707974                       # Number of times decode resolved a  branch
system.switch_cpus3.decode.branchMispred           42                       # Number of times decode detected a branch misprediction
system.switch_cpus3.decode.decodedInsts     314107700                       # Number of instructions handled by decode
system.switch_cpus3.decode.squashedInsts          171                       # Number of squashed instructions handled by decode
system.switch_cpus3.dtb.rdAccesses           48093451                       # TLB accesses on read requests
system.switch_cpus3.dtb.wrAccesses           12952857                       # TLB accesses on write requests
system.switch_cpus3.dtb.rdMisses                47499                       # TLB misses on read requests
system.switch_cpus3.dtb.wrMisses                    0                       # TLB misses on write requests
system.switch_cpus3.dtb.walker.power_state.pwrStateResidencyTicks::UNDEFINED 16848450245439                       # Cumulative time (in ticks) in various power states
system.switch_cpus3.fetch.icacheStallCycles       207902                       # Number of cycles fetch is stalled on an Icache miss
system.switch_cpus3.fetch.insts             208541539                       # Number of instructions fetch has processed
system.switch_cpus3.fetch.branches           20318546                       # Number of branches that fetch encountered
system.switch_cpus3.fetch.predictedBranches      9544335                       # Number of branches that fetch has predicted taken
system.switch_cpus3.fetch.cycles             99562350                       # Number of cycles fetch has run and was not squashing or blocked
system.switch_cpus3.fetch.squashCycles         417518                       # Number of cycles fetch has spent squashing
system.switch_cpus3.fetch.cacheLines         23680247                       # Number of cache lines fetched
system.switch_cpus3.fetch.icacheSquashes           60                       # Number of outstanding Icache misses that were squashed
system.switch_cpus3.fetch.nisnDist::samples     99979011                       # Number of instructions fetched each cycle (Total)
system.switch_cpus3.fetch.nisnDist::mean     3.187526                       # Number of instructions fetched each cycle (Total)
system.switch_cpus3.fetch.nisnDist::stdev     3.453655                       # Number of instructions fetched each cycle (Total)
system.switch_cpus3.fetch.nisnDist::underflows            0      0.00%      0.00% # Number of instructions fetched each cycle (Total)
system.switch_cpus3.fetch.nisnDist::0        44764055     44.77%     44.77% # Number of instructions fetched each cycle (Total)
system.switch_cpus3.fetch.nisnDist::1         4619556      4.62%     49.39% # Number of instructions fetched each cycle (Total)
system.switch_cpus3.fetch.nisnDist::2         4870825      4.87%     54.27% # Number of instructions fetched each cycle (Total)
system.switch_cpus3.fetch.nisnDist::3         4261631      4.26%     58.53% # Number of instructions fetched each cycle (Total)
system.switch_cpus3.fetch.nisnDist::4         5581825      5.58%     64.11% # Number of instructions fetched each cycle (Total)
system.switch_cpus3.fetch.nisnDist::5         4000172      4.00%     68.11% # Number of instructions fetched each cycle (Total)
system.switch_cpus3.fetch.nisnDist::6         1866000      1.87%     69.98% # Number of instructions fetched each cycle (Total)
system.switch_cpus3.fetch.nisnDist::7         2104131      2.10%     72.08% # Number of instructions fetched each cycle (Total)
system.switch_cpus3.fetch.nisnDist::8        27910816     27.92%    100.00% # Number of instructions fetched each cycle (Total)
system.switch_cpus3.fetch.nisnDist::overflows            0      0.00%    100.00% # Number of instructions fetched each cycle (Total)
system.switch_cpus3.fetch.nisnDist::min_value            0                       # Number of instructions fetched each cycle (Total)
system.switch_cpus3.fetch.nisnDist::max_value            8                       # Number of instructions fetched each cycle (Total)
system.switch_cpus3.fetch.nisnDist::total     99979011                       # Number of instructions fetched each cycle (Total)
system.switch_cpus3.fetch.branchRate         0.203190                       # Number of branch fetches per cycle
system.switch_cpus3.fetch.rate               2.085457                       # Number of inst fetches per cycle
system.switch_cpus3.itb.rdAccesses                  0                       # TLB accesses on read requests
system.switch_cpus3.itb.wrAccesses           23680247                       # TLB accesses on write requests
system.switch_cpus3.itb.rdMisses                    0                       # TLB misses on read requests
system.switch_cpus3.itb.wrMisses                   10                       # TLB misses on write requests
system.switch_cpus3.itb.walker.power_state.pwrStateResidencyTicks::UNDEFINED 16848450245439                       # Cumulative time (in ticks) in various power states
system.switch_cpus3.lsq0.forwLoads             368837                       # Number of loads that had data forwarded from stores
system.switch_cpus3.lsq0.squashedLoads        2807034                       # Number of loads squashed
system.switch_cpus3.lsq0.ignoredResponses            8                       # Number of memory responses ignored because the instruction is squashed
system.switch_cpus3.lsq0.memOrderViolation          460                       # Number of memory ordering violations
system.switch_cpus3.lsq0.squashedStores       2760256                       # Number of stores squashed
system.switch_cpus3.lsq0.rescheduledLoads            0                       # Number of loads that were rescheduled
system.switch_cpus3.lsq0.blockedByCache             1                       # Number of times an access to memory failed due to the cache being blocked
system.switch_cpus3.power_state.pwrStateResidencyTicks::OFF  33299339328                       # Cumulative time (in ticks) in various power states
system.switch_cpus3.rename.squashCycles        208717                       # Number of cycles rename is squashing
system.switch_cpus3.rename.idleCycles        13330094                       # Number of cycles rename is idle
system.switch_cpus3.rename.blockCycles       29461126                       # Number of cycles rename is blocking
system.switch_cpus3.rename.serializeStallCycles            0                       # count of cycles rename stalledfor serializing inst
system.switch_cpus3.rename.runCycles         35529428                       # Number of cycles rename is running
system.switch_cpus3.rename.unblockCycles     21449636                       # Number of cycles rename is unblocking
system.switch_cpus3.rename.renamedInsts     312721211                       # Number of instructions processed by rename
system.switch_cpus3.rename.ROBFullEvents        38861                       # Number of times rename has blocked due to ROB full
system.switch_cpus3.rename.IQFullEvents      15316821                       # Number of times rename has blocked due to IQ full
system.switch_cpus3.rename.LQFullEvents       2117629                       # Number of times rename has blocked due to LQ full
system.switch_cpus3.rename.SQFullEvents            30                       # Number of times rename has blocked due to SQ full
system.switch_cpus3.rename.renamedOperands    328437227                       # Number of destination operands rename has renamed
system.switch_cpus3.rename.lookups          817873274                       # Number of register rename lookups that rename has made
system.switch_cpus3.rename.intLookups       259293551                       # Number of integer rename lookups
system.switch_cpus3.rename.fpLookups        323813677                       # Number of floating rename lookups
system.switch_cpus3.rename.committedMaps    302334500                       # Number of HB maps that are committed
system.switch_cpus3.rename.undoneMaps        26102591                       # Number of HB maps that are undone due to squashing
system.switch_cpus3.rename.serializing              0                       # count of serializing insts renamed
system.switch_cpus3.rename.tempSerializing            0                       # count of temporary serializing insts renamed
system.switch_cpus3.rename.skidInsts         63656535                       # count of insts added to the skid buffer
system.switch_cpus3.rob.reads               382232139                       # The number of ROB reads
system.switch_cpus3.rob.writes              623712647                       # The number of ROB writes
system.switch_cpus3.thread0.numInsts        188437265                       # Number of Instructions committed
system.switch_cpus3.thread0.numOps          287247310                       # Number of Ops committed
system.switch_cpus3.thread0.numMemRefs              0                       # Number of Memory References
system.voltage_domain.voltage                       1                       # Voltage in Volts

---------- End Simulation Statistics   ----------
