Command line:
./runscript_pride.sh mix7 RFM5.BR1.4C 4 2017 --rh_defense --rh_mitigation=RFM --rh_rfm_per_trefi=5 --rh_rfm_blast_radius=1 --rh_rfm_maxacts_per_trefi=79
Global frequency set at 1000000000000 ticks per second
RFM details - rfm_act_threshold: 15, blast_radius: 1, delay_per_rfm: 175000 ps. sample_rate: 0.062500
RH Defense config: RFM, Bus Delay: 0, rfms_per_trefi: 5, rfm_act_threshold: 15, blast_radius: 1,rfm_delay_per_act: 45000 ps.
DRAM config: RowsPerBank: 65536, BanksPerRank: 32, RanksPerChannel: 1
warn: Sockets disabled, not accepting gdb connections
warn: CoherentXBar system.cpu0.mmucache.mmubus has no snooping ports attached!
warn: CoherentXBar system.cpu1.mmucache.mmubus has no snooping ports attached!
warn: CoherentXBar system.cpu2.mmucache.mmubus has no snooping ports attached!
warn: CoherentXBar system.cpu3.mmucache.mmubus has no snooping ports attached!
warn: Checkpoints for file descriptors currently do not work.
warn: Checkpoints for file descriptors currently do not work.
warn: Checkpoints for file descriptors currently do not work.
warn: Checkpoints for file descriptors currently do not work.
gem5 Simulator System.  http://gem5.org
gem5 is copyrighted software; use the --copyright option for details.

gem5 version 20.1.0.5
gem5 compiled Jul 12 2024 12:42:38
gem5 started Jul 31 2024 18:13:01
gem5 executing on a07dda8b130c, pid 241901
command line: /home/user/PrIDE/performance/gem5/build/X86/gem5.opt --outdir=/home/user/PrIDE/performance/gem5/stats/pride_multiprogram_16GBmem_250Mn.SPEC2017.C4/RFM5.BR1.4C/mix7 /home/user/PrIDE/performance/gem5/configs/example/se_rq_spec_config_multicore.py --redirects /lib64=/home/utils/gcc-6.2.0/lib64 --benchmark=mix7 --benchmark_stdout=/home/user/PrIDE/performance/gem5/stats/pride_multiprogram_16GBmem_250Mn.SPEC2017.C4/RFM5.BR1.4C/mix7/mix7.out --benchmark_stderr=/home/user/PrIDE/performance/gem5/stats/pride_multiprogram_16GBmem_250Mn.SPEC2017.C4/RFM5.BR1.4C/mix7/mix7.err --spec-version=2017 --rh_defense --rh_mitigation=RFM --rh_rfm_per_trefi=5 --rh_rfm_blast_radius=1 --rh_rfm_maxacts_per_trefi=79 --num-cpus=4 --mem-size=16GB --mem-type=DDR5_2400_32x4 --mem-ranks=1 --mem-channels=1 --checkpoint-dir=/home/user/PrIDE/performance/gem5/cpts-DDR5/multiprogram_16GBmem_25Bn.SPEC2017.C4/mix7-1-ref-x86 --checkpoint-restore=25000000000 --at-instruction --cpu-type DerivO3CPU --caches --l2cache --l1d_size=32kB --l1i_size=32kB --l2_size=256kB --l3_size=4MB --l1d_assoc=8 --l1i_assoc=8 --l2_assoc=16 --l3_assoc=16 --cpu-clock=3GHz --sys-clock=3GHz --maxinsts=250000000 --prog-interval=300Hz

info: Standard input is not a terminal, disabling listeners.
Benchmark- 0   povray
Selected benchmark
--> povray
CMD: ['/opt/spec2017/benchspec/CPU/511.povray_r/run/run_base_refrate_gem5_se-m64.0000/povray_r_base.gem5_se-m64', '/opt/spec2017/benchspec/CPU/511.povray_r/run/run_base_refrate_gem5_se-m64.0000/SPEC-benchmark-ref.ini']
CWD: /opt/spec2017/benchspec/CPU/511.povray_r/run/run_base_refrate_gem5_se-m64.0000/
Process stdout file: /home/user/PrIDE/performance/gem5/stats/pride_multiprogram_16GBmem_250Mn.SPEC2017.C4/RFM5.BR1.4C/mix7/mix7.out_0
Process stderr file: /home/user/PrIDE/performance/gem5/stats/pride_multiprogram_16GBmem_250Mn.SPEC2017.C4/RFM5.BR1.4C/mix7/mix7.err_0
Benchmark- 1   roms
Selected benchmark
--> roms
CMD: ['/opt/spec2017/benchspec/CPU/554.roms_r/run/run_base_refrate_gem5_se-m64.0000/roms_r_base.gem5_se-m64']
CWD: /opt/spec2017/benchspec/CPU/554.roms_r/run/run_base_refrate_gem5_se-m64.0000/
Process stdout file: /home/user/PrIDE/performance/gem5/stats/pride_multiprogram_16GBmem_250Mn.SPEC2017.C4/RFM5.BR1.4C/mix7/mix7.out_1
Process stderr file: /home/user/PrIDE/performance/gem5/stats/pride_multiprogram_16GBmem_250Mn.SPEC2017.C4/RFM5.BR1.4C/mix7/mix7.err_1
Benchmark- 2   nab
Selected benchmark
--> nab
CMD: ['/opt/spec2017/benchspec/CPU/544.nab_r/run/run_base_refrate_gem5_se-m64.0000/nab_r_base.gem5_se-m64', '1am0', '1122214447', '122']
CWD: /opt/spec2017/benchspec/CPU/544.nab_r/run/run_base_refrate_gem5_se-m64.0000/
Process stdout file: /home/user/PrIDE/performance/gem5/stats/pride_multiprogram_16GBmem_250Mn.SPEC2017.C4/RFM5.BR1.4C/mix7/mix7.out_2
Process stderr file: /home/user/PrIDE/performance/gem5/stats/pride_multiprogram_16GBmem_250Mn.SPEC2017.C4/RFM5.BR1.4C/mix7/mix7.err_2
Benchmark- 3   bwaves
Selected benchmark
--> bwaves
CMD: ['/opt/spec2017/benchspec/CPU/503.bwaves_r/run/run_base_refrate_gem5_se-m64.0000/bwaves_r_base.gem5_se-m64', '/opt/spec2017/benchspec/CPU/503.bwaves_r/run/run_base_refrate_gem5_se-m64.0000/bwaves_1']
CWD: /opt/spec2017/benchspec/CPU/503.bwaves_r/run/run_base_refrate_gem5_se-m64.0000/
Process stdout file: /home/user/PrIDE/performance/gem5/stats/pride_multiprogram_16GBmem_250Mn.SPEC2017.C4/RFM5.BR1.4C/mix7/mix7.out_3
Process stderr file: /home/user/PrIDE/performance/gem5/stats/pride_multiprogram_16GBmem_250Mn.SPEC2017.C4/RFM5.BR1.4C/mix7/mix7.err_3
Workload-0: 
['/opt/spec2017/benchspec/CPU/511.povray_r/run/run_base_refrate_gem5_se-m64.0000/povray_r_base.gem5_se-m64', '/opt/spec2017/benchspec/CPU/511.povray_r/run/run_base_refrate_gem5_se-m64.0000/SPEC-benchmark-ref.ini']
Workload-1: 
['/opt/spec2017/benchspec/CPU/554.roms_r/run/run_base_refrate_gem5_se-m64.0000/roms_r_base.gem5_se-m64']
Workload-2: 
['/opt/spec2017/benchspec/CPU/544.nab_r/run/run_base_refrate_gem5_se-m64.0000/nab_r_base.gem5_se-m64', '1am0', '1122214447', '122']
Workload-3: 
['/opt/spec2017/benchspec/CPU/503.bwaves_r/run/run_base_refrate_gem5_se-m64.0000/bwaves_r_base.gem5_se-m64', '/opt/spec2017/benchspec/CPU/503.bwaves_r/run/run_base_refrate_gem5_se-m64.0000/bwaves_1']
defense_enable:  True  detector:  MG  mitigation:  RFM  threshold:  800
mg_entries:  1700
rfm_maxacts_per_trefi:  79 rfm_per_trefi:  5 rfm_blast_radius:  1
Switch at curTick count:10000
warn: membus.master is deprecated. `master` is now called `mem_side_ports`
warn: No dot file generated. Please install pydot to generate the dot file and pdf.
info: Entering event queue @ 15651257118291.  Starting simulation...
info: Entering event queue @ 15651257128291.  Starting simulation...
warn: PowerState: Already in the requested power state, request ignored
Switched CPUS @ tick 15651257128291
switching cpus
**** REAL SIMULATION ****
info: Entering event queue @ 15651257128947.  Starting simulation...
15654590451624: Event_285: system.switch_cpus3 progress event, total committed:39485604, progress insts committed: 39485604, IPC: 03.94461
15654590451624: Event_284: system.switch_cpus2 progress event, total committed:26394433, progress insts committed: 26394433, IPC: 002.6368
15654590451624: Event_283: system.switch_cpus1 progress event, total committed:8721913, progress insts committed: 8721913, IPC: 0.871319
15654590451624: Event_282: system.switch_cpus0 progress event, total committed:45133940, progress insts committed: 45133940, IPC: 04.50888
15657923784957: Event_282: system.switch_cpus0 progress event, total committed:89248876, progress insts committed: 44114936, IPC: 04.40708
15657923784957: Event_283: system.switch_cpus1 progress event, total committed:17400303, progress insts committed: 8678390, IPC: 0.866971
15657923784957: Event_284: system.switch_cpus2 progress event, total committed:54960701, progress insts committed: 28566268, IPC: 02.85377
15657923784957: Event_285: system.switch_cpus3 progress event, total committed:78767549, progress insts committed: 39281945, IPC: 03.92427
15661257118290: Event_285: system.switch_cpus3 progress event, total committed:118746385, progress insts committed: 39978836, IPC: 03.99389
15661257118290: Event_284: system.switch_cpus2 progress event, total committed:83294407, progress insts committed: 28333706, IPC: 02.83054
15661257118290: Event_283: system.switch_cpus1 progress event, total committed:26133928, progress insts committed: 8733625, IPC: 0.872489
15661257118290: Event_282: system.switch_cpus0 progress event, total committed:134262018, progress insts committed: 45013142, IPC: 04.49681
15664590451623: Event_282: system.switch_cpus0 progress event, total committed:179379460, progress insts committed: 45117442, IPC: 04.50723
15664590451623: Event_283: system.switch_cpus1 progress event, total committed:36270292, progress insts committed: 10136364, IPC: 01.01262
15664590451623: Event_284: system.switch_cpus2 progress event, total committed:108450097, progress insts committed: 25155690, IPC: 02.51305
15664590451623: Event_285: system.switch_cpus3 progress event, total committed:156420245, progress insts committed: 37673860, IPC: 03.76362
15667923784956: Event_285: system.switch_cpus3 progress event, total committed:185439296, progress insts committed: 29019051, IPC: 0002.899
15667923784956: Event_284: system.switch_cpus2 progress event, total committed:131405459, progress insts committed: 22955362, IPC: 02.29324
15667923784956: Event_283: system.switch_cpus1 progress event, total committed:44834311, progress insts committed: 8564019, IPC: 0.855545
15667923784956: Event_282: system.switch_cpus0 progress event, total committed:224282714, progress insts committed: 44903254, IPC: 04.48584
15671257118289: Event_282: system.switch_cpus0 progress event, total committed:269446808, progress insts committed: 45164094, IPC: 04.51189
15671257118289: Event_283: system.switch_cpus1 progress event, total committed:51757627, progress insts committed: 6923316, IPC: 0.691639
15671257118289: Event_284: system.switch_cpus2 progress event, total committed:155610562, progress insts committed: 24205103, IPC: 02.41809
15671257118289: Event_285: system.switch_cpus3 progress event, total committed:226710963, progress insts committed: 41271667, IPC: 04.12304
15674590451622: Event_285: system.switch_cpus3 progress event, total committed:265871978, progress insts committed: 39161015, IPC: 03.91219
15674590451622: Event_284: system.switch_cpus2 progress event, total committed:183340543, progress insts committed: 27729981, IPC: 02.77023
15674590451622: Event_283: system.switch_cpus1 progress event, total committed:78072017, progress insts committed: 26314390, IPC: 02.62881
15674590451622: Event_282: system.switch_cpus0 progress event, total committed:314673177, progress insts committed: 45226369, IPC: 04.51811
15677923784955: Event_282: system.switch_cpus0 progress event, total committed:359906344, progress insts committed: 45233167, IPC: 04.51879
15677923784955: Event_283: system.switch_cpus1 progress event, total committed:104669188, progress insts committed: 26597171, IPC: 02.65706
15677923784955: Event_284: system.switch_cpus2 progress event, total committed:211827985, progress insts committed: 28487442, IPC: 002.8459
15677923784955: Event_285: system.switch_cpus3 progress event, total committed:306211669, progress insts committed: 40339691, IPC: 04.02994
15681257118288: Event_285: system.switch_cpus3 progress event, total committed:346565117, progress insts committed: 40353448, IPC: 04.03131
15681257118288: Event_284: system.switch_cpus2 progress event, total committed:239485823, progress insts committed: 27657838, IPC: 02.76302
15681257118288: Event_283: system.switch_cpus1 progress event, total committed:131174003, progress insts committed: 26504815, IPC: 02.64783
15681257118288: Event_282: system.switch_cpus0 progress event, total committed:405248297, progress insts committed: 45341953, IPC: 04.52966
Exiting @ tick 15684571178883 because a thread reached the max instruction count
