
---------- Begin Simulation Statistics ----------
final_tick                               15684571605789                       # Number of ticks from beginning of simulation (restored from checkpoints and never reset)
host_inst_rate                                 152735                       # Simulator instruction rate (inst/s)
host_mem_usage                               17363328                       # Number of bytes of host memory used
host_op_rate                                   263676                       # Simulator op (including micro ops) rate (op/s)
host_seconds                                  4784.70                       # Real time elapsed on the host
host_tick_rate                                6962724                       # Simulator tick rate (ticks/s)
sim_freq                                 1000000000000                       # Frequency of simulated ticks
sim_insts                                   730792065                       # Number of instructions simulated
sim_ops                                    1261610510                       # Number of ops (including micro ops) simulated
sim_seconds                                  0.033315                       # Number of seconds simulated
sim_ticks                                 33314528457                       # Number of ticks simulated
system.cpu0.Branches                                4                       # Number of branches fetched
system.cpu0.committedInsts                         14                       # Number of instructions committed
system.cpu0.committedOps                           26                       # Number of ops (including micro ops) committed
system.cpu0.idle_fraction                           0                       # Percentage of idle cycles
system.cpu0.l2bus.snoop_filter.hit_multi_requests        27867                       # Number of requests hitting in the snoop filter with multiple (>1) holders of the requested data.
system.cpu0.l2bus.snoop_filter.hit_multi_snoops            0                       # Number of snoops hitting in the snoop filter with multiple (>1) holders of the requested data.
system.cpu0.l2bus.snoop_filter.hit_single_requests      1723656                       # Number of requests hitting in the snoop filter with a single holder of the requested data.
system.cpu0.l2bus.snoop_filter.hit_single_snoops            0                       # Number of snoops hitting in the snoop filter with a single holder of the requested data.
system.cpu0.l2bus.snoop_filter.tot_requests      3448318                       # Total number of requests made to the snoop filter.
system.cpu0.l2bus.snoop_filter.tot_snoops            0                       # Total number of snoops made to the snoop filter.
system.cpu0.mmucache.mmubus.snoop_filter.hit_multi_requests            0                       # Number of requests hitting in the snoop filter with multiple (>1) holders of the requested data.
system.cpu0.mmucache.mmubus.snoop_filter.hit_multi_snoops            0                       # Number of snoops hitting in the snoop filter with multiple (>1) holders of the requested data.
system.cpu0.mmucache.mmubus.snoop_filter.hit_single_requests            0                       # Number of requests hitting in the snoop filter with a single holder of the requested data.
system.cpu0.mmucache.mmubus.snoop_filter.hit_single_snoops            0                       # Number of snoops hitting in the snoop filter with a single holder of the requested data.
system.cpu0.mmucache.mmubus.snoop_filter.tot_requests            0                       # Total number of requests made to the snoop filter.
system.cpu0.mmucache.mmubus.snoop_filter.tot_snoops            0                       # Total number of snoops made to the snoop filter.
system.cpu0.not_idle_fraction                       1                       # Percentage of non-idle cycles
system.cpu0.numCycles                              30                       # number of cpu cycles simulated
system.cpu0.numWorkItemsCompleted                   0                       # number of work items this cpu completed
system.cpu0.numWorkItemsStarted                     0                       # number of work items this cpu started
system.cpu0.num_busy_cycles                        30                       # Number of busy cycles
system.cpu0.num_cc_register_reads                  13                       # number of times the CC registers were read
system.cpu0.num_cc_register_writes                  6                       # number of times the CC registers were written
system.cpu0.num_conditional_control_insts            2                       # number of instructions that are conditional controls
system.cpu0.num_fp_alu_accesses                     6                       # Number of float alu accesses
system.cpu0.num_fp_insts                            6                       # number of float instructions
system.cpu0.num_fp_register_reads                   7                       # number of times the floating registers were read
system.cpu0.num_fp_register_writes                  5                       # number of times the floating registers were written
system.cpu0.num_func_calls                          2                       # number of times a function call or return occured
system.cpu0.num_idle_cycles                         0                       # Number of idle cycles
system.cpu0.num_int_alu_accesses                   24                       # Number of integer alu accesses
system.cpu0.num_int_insts                          24                       # number of integer instructions
system.cpu0.num_int_register_reads                 48                       # number of times the integer registers were read
system.cpu0.num_int_register_writes                15                       # number of times the integer registers were written
system.cpu0.num_load_insts                          5                       # Number of load instructions
system.cpu0.num_mem_refs                            7                       # number of memory refs
system.cpu0.num_store_insts                         2                       # Number of store instructions
system.cpu0.num_vec_alu_accesses                    0                       # Number of vector alu accesses
system.cpu0.num_vec_insts                           0                       # number of vector instructions
system.cpu0.num_vec_register_reads                  0                       # number of times the vector registers were read
system.cpu0.num_vec_register_writes                 0                       # number of times the vector registers were written
system.cpu0.op_class::No_OpClass                    0      0.00%      0.00% # Class of executed instruction
system.cpu0.op_class::IntAlu                       17     65.38%     65.38% # Class of executed instruction
system.cpu0.op_class::IntMult                       0      0.00%     65.38% # Class of executed instruction
system.cpu0.op_class::IntDiv                        0      0.00%     65.38% # Class of executed instruction
system.cpu0.op_class::FloatAdd                      0      0.00%     65.38% # Class of executed instruction
system.cpu0.op_class::FloatCmp                      0      0.00%     65.38% # Class of executed instruction
system.cpu0.op_class::FloatCvt                      0      0.00%     65.38% # Class of executed instruction
system.cpu0.op_class::FloatMult                     0      0.00%     65.38% # Class of executed instruction
system.cpu0.op_class::FloatMultAcc                  0      0.00%     65.38% # Class of executed instruction
system.cpu0.op_class::FloatDiv                      0      0.00%     65.38% # Class of executed instruction
system.cpu0.op_class::FloatMisc                     0      0.00%     65.38% # Class of executed instruction
system.cpu0.op_class::FloatSqrt                     0      0.00%     65.38% # Class of executed instruction
system.cpu0.op_class::SimdAdd                       0      0.00%     65.38% # Class of executed instruction
system.cpu0.op_class::SimdAddAcc                    0      0.00%     65.38% # Class of executed instruction
system.cpu0.op_class::SimdAlu                       0      0.00%     65.38% # Class of executed instruction
system.cpu0.op_class::SimdCmp                       0      0.00%     65.38% # Class of executed instruction
system.cpu0.op_class::SimdCvt                       0      0.00%     65.38% # Class of executed instruction
system.cpu0.op_class::SimdMisc                      0      0.00%     65.38% # Class of executed instruction
system.cpu0.op_class::SimdMult                      0      0.00%     65.38% # Class of executed instruction
system.cpu0.op_class::SimdMultAcc                   0      0.00%     65.38% # Class of executed instruction
system.cpu0.op_class::SimdShift                     0      0.00%     65.38% # Class of executed instruction
system.cpu0.op_class::SimdShiftAcc                  0      0.00%     65.38% # Class of executed instruction
system.cpu0.op_class::SimdDiv                       0      0.00%     65.38% # Class of executed instruction
system.cpu0.op_class::SimdSqrt                      0      0.00%     65.38% # Class of executed instruction
system.cpu0.op_class::SimdFloatAdd                  1      3.85%     69.23% # Class of executed instruction
system.cpu0.op_class::SimdFloatAlu                  0      0.00%     69.23% # Class of executed instruction
system.cpu0.op_class::SimdFloatCmp                  0      0.00%     69.23% # Class of executed instruction
system.cpu0.op_class::SimdFloatCvt                  0      0.00%     69.23% # Class of executed instruction
system.cpu0.op_class::SimdFloatDiv                  0      0.00%     69.23% # Class of executed instruction
system.cpu0.op_class::SimdFloatMisc                 0      0.00%     69.23% # Class of executed instruction
system.cpu0.op_class::SimdFloatMult                 1      3.85%     73.08% # Class of executed instruction
system.cpu0.op_class::SimdFloatMultAcc              0      0.00%     73.08% # Class of executed instruction
system.cpu0.op_class::SimdFloatSqrt                 0      0.00%     73.08% # Class of executed instruction
system.cpu0.op_class::SimdReduceAdd                 0      0.00%     73.08% # Class of executed instruction
system.cpu0.op_class::SimdReduceAlu                 0      0.00%     73.08% # Class of executed instruction
system.cpu0.op_class::SimdReduceCmp                 0      0.00%     73.08% # Class of executed instruction
system.cpu0.op_class::SimdFloatReduceAdd            0      0.00%     73.08% # Class of executed instruction
system.cpu0.op_class::SimdFloatReduceCmp            0      0.00%     73.08% # Class of executed instruction
system.cpu0.op_class::SimdAes                       0      0.00%     73.08% # Class of executed instruction
system.cpu0.op_class::SimdAesMix                    0      0.00%     73.08% # Class of executed instruction
system.cpu0.op_class::SimdSha1Hash                  0      0.00%     73.08% # Class of executed instruction
system.cpu0.op_class::SimdSha1Hash2                 0      0.00%     73.08% # Class of executed instruction
system.cpu0.op_class::SimdSha256Hash                0      0.00%     73.08% # Class of executed instruction
system.cpu0.op_class::SimdSha256Hash2               0      0.00%     73.08% # Class of executed instruction
system.cpu0.op_class::SimdShaSigma2                 0      0.00%     73.08% # Class of executed instruction
system.cpu0.op_class::SimdShaSigma3                 0      0.00%     73.08% # Class of executed instruction
system.cpu0.op_class::SimdPredAlu                   0      0.00%     73.08% # Class of executed instruction
system.cpu0.op_class::MemRead                       2      7.69%     80.77% # Class of executed instruction
system.cpu0.op_class::MemWrite                      1      3.85%     84.62% # Class of executed instruction
system.cpu0.op_class::FloatMemRead                  3     11.54%     96.15% # Class of executed instruction
system.cpu0.op_class::FloatMemWrite                 1      3.85%    100.00% # Class of executed instruction
system.cpu0.op_class::IprAccess                     0      0.00%    100.00% # Class of executed instruction
system.cpu0.op_class::InstPrefetch                  0      0.00%    100.00% # Class of executed instruction
system.cpu0.op_class::total                        26                       # Class of executed instruction
system.cpu0.workload.numSyscalls                    2                       # Number of system calls
system.cpu1.Branches                                1                       # Number of branches fetched
system.cpu1.committedInsts                         14                       # Number of instructions committed
system.cpu1.committedOps                           23                       # Number of ops (including micro ops) committed
system.cpu1.idle_fraction                           0                       # Percentage of idle cycles
system.cpu1.l2bus.snoop_filter.hit_multi_requests            2                       # Number of requests hitting in the snoop filter with multiple (>1) holders of the requested data.
system.cpu1.l2bus.snoop_filter.hit_multi_snoops            0                       # Number of snoops hitting in the snoop filter with multiple (>1) holders of the requested data.
system.cpu1.l2bus.snoop_filter.hit_single_requests      1490309                       # Number of requests hitting in the snoop filter with a single holder of the requested data.
system.cpu1.l2bus.snoop_filter.hit_single_snoops         2010                       # Number of snoops hitting in the snoop filter with a single holder of the requested data.
system.cpu1.l2bus.snoop_filter.tot_requests      2911808                       # Total number of requests made to the snoop filter.
system.cpu1.l2bus.snoop_filter.tot_snoops         2010                       # Total number of snoops made to the snoop filter.
system.cpu1.mmucache.mmubus.snoop_filter.hit_multi_requests            0                       # Number of requests hitting in the snoop filter with multiple (>1) holders of the requested data.
system.cpu1.mmucache.mmubus.snoop_filter.hit_multi_snoops            0                       # Number of snoops hitting in the snoop filter with multiple (>1) holders of the requested data.
system.cpu1.mmucache.mmubus.snoop_filter.hit_single_requests            0                       # Number of requests hitting in the snoop filter with a single holder of the requested data.
system.cpu1.mmucache.mmubus.snoop_filter.hit_single_snoops            0                       # Number of snoops hitting in the snoop filter with a single holder of the requested data.
system.cpu1.mmucache.mmubus.snoop_filter.tot_requests            0                       # Total number of requests made to the snoop filter.
system.cpu1.mmucache.mmubus.snoop_filter.tot_snoops            0                       # Total number of snoops made to the snoop filter.
system.cpu1.not_idle_fraction                       1                       # Percentage of non-idle cycles
system.cpu1.numCycles                              30                       # number of cpu cycles simulated
system.cpu1.numWorkItemsCompleted                   0                       # number of work items this cpu completed
system.cpu1.numWorkItemsStarted                     0                       # number of work items this cpu started
system.cpu1.num_busy_cycles                        30                       # Number of busy cycles
system.cpu1.num_cc_register_reads                   5                       # number of times the CC registers were read
system.cpu1.num_cc_register_writes                  8                       # number of times the CC registers were written
system.cpu1.num_conditional_control_insts            1                       # number of instructions that are conditional controls
system.cpu1.num_fp_alu_accesses                    12                       # Number of float alu accesses
system.cpu1.num_fp_insts                           12                       # number of float instructions
system.cpu1.num_fp_register_reads                  21                       # number of times the floating registers were read
system.cpu1.num_fp_register_writes                 11                       # number of times the floating registers were written
system.cpu1.num_func_calls                          0                       # number of times a function call or return occured
system.cpu1.num_idle_cycles                         0                       # Number of idle cycles
system.cpu1.num_int_alu_accesses                   16                       # Number of integer alu accesses
system.cpu1.num_int_insts                          16                       # number of integer instructions
system.cpu1.num_int_register_reads                 33                       # number of times the integer registers were read
system.cpu1.num_int_register_writes                10                       # number of times the integer registers were written
system.cpu1.num_load_insts                          6                       # Number of load instructions
system.cpu1.num_mem_refs                            7                       # number of memory refs
system.cpu1.num_store_insts                         1                       # Number of store instructions
system.cpu1.num_vec_alu_accesses                    0                       # Number of vector alu accesses
system.cpu1.num_vec_insts                           0                       # number of vector instructions
system.cpu1.num_vec_register_reads                  0                       # number of times the vector registers were read
system.cpu1.num_vec_register_writes                 0                       # number of times the vector registers were written
system.cpu1.op_class::No_OpClass                    0      0.00%      0.00% # Class of executed instruction
system.cpu1.op_class::IntAlu                       10     43.48%     43.48% # Class of executed instruction
system.cpu1.op_class::IntMult                       0      0.00%     43.48% # Class of executed instruction
system.cpu1.op_class::IntDiv                        0      0.00%     43.48% # Class of executed instruction
system.cpu1.op_class::FloatAdd                      0      0.00%     43.48% # Class of executed instruction
system.cpu1.op_class::FloatCmp                      0      0.00%     43.48% # Class of executed instruction
system.cpu1.op_class::FloatCvt                      0      0.00%     43.48% # Class of executed instruction
system.cpu1.op_class::FloatMult                     0      0.00%     43.48% # Class of executed instruction
system.cpu1.op_class::FloatMultAcc                  0      0.00%     43.48% # Class of executed instruction
system.cpu1.op_class::FloatDiv                      0      0.00%     43.48% # Class of executed instruction
system.cpu1.op_class::FloatMisc                     0      0.00%     43.48% # Class of executed instruction
system.cpu1.op_class::FloatSqrt                     0      0.00%     43.48% # Class of executed instruction
system.cpu1.op_class::SimdAdd                       0      0.00%     43.48% # Class of executed instruction
system.cpu1.op_class::SimdAddAcc                    0      0.00%     43.48% # Class of executed instruction
system.cpu1.op_class::SimdAlu                       0      0.00%     43.48% # Class of executed instruction
system.cpu1.op_class::SimdCmp                       0      0.00%     43.48% # Class of executed instruction
system.cpu1.op_class::SimdCvt                       0      0.00%     43.48% # Class of executed instruction
system.cpu1.op_class::SimdMisc                      0      0.00%     43.48% # Class of executed instruction
system.cpu1.op_class::SimdMult                      0      0.00%     43.48% # Class of executed instruction
system.cpu1.op_class::SimdMultAcc                   0      0.00%     43.48% # Class of executed instruction
system.cpu1.op_class::SimdShift                     0      0.00%     43.48% # Class of executed instruction
system.cpu1.op_class::SimdShiftAcc                  0      0.00%     43.48% # Class of executed instruction
system.cpu1.op_class::SimdDiv                       0      0.00%     43.48% # Class of executed instruction
system.cpu1.op_class::SimdSqrt                      0      0.00%     43.48% # Class of executed instruction
system.cpu1.op_class::SimdFloatAdd                  4     17.39%     60.87% # Class of executed instruction
system.cpu1.op_class::SimdFloatAlu                  0      0.00%     60.87% # Class of executed instruction
system.cpu1.op_class::SimdFloatCmp                  0      0.00%     60.87% # Class of executed instruction
system.cpu1.op_class::SimdFloatCvt                  0      0.00%     60.87% # Class of executed instruction
system.cpu1.op_class::SimdFloatDiv                  0      0.00%     60.87% # Class of executed instruction
system.cpu1.op_class::SimdFloatMisc                 0      0.00%     60.87% # Class of executed instruction
system.cpu1.op_class::SimdFloatMult                 2      8.70%     69.57% # Class of executed instruction
system.cpu1.op_class::SimdFloatMultAcc              0      0.00%     69.57% # Class of executed instruction
system.cpu1.op_class::SimdFloatSqrt                 0      0.00%     69.57% # Class of executed instruction
system.cpu1.op_class::SimdReduceAdd                 0      0.00%     69.57% # Class of executed instruction
system.cpu1.op_class::SimdReduceAlu                 0      0.00%     69.57% # Class of executed instruction
system.cpu1.op_class::SimdReduceCmp                 0      0.00%     69.57% # Class of executed instruction
system.cpu1.op_class::SimdFloatReduceAdd            0      0.00%     69.57% # Class of executed instruction
system.cpu1.op_class::SimdFloatReduceCmp            0      0.00%     69.57% # Class of executed instruction
system.cpu1.op_class::SimdAes                       0      0.00%     69.57% # Class of executed instruction
system.cpu1.op_class::SimdAesMix                    0      0.00%     69.57% # Class of executed instruction
system.cpu1.op_class::SimdSha1Hash                  0      0.00%     69.57% # Class of executed instruction
system.cpu1.op_class::SimdSha1Hash2                 0      0.00%     69.57% # Class of executed instruction
system.cpu1.op_class::SimdSha256Hash                0      0.00%     69.57% # Class of executed instruction
system.cpu1.op_class::SimdSha256Hash2               0      0.00%     69.57% # Class of executed instruction
system.cpu1.op_class::SimdShaSigma2                 0      0.00%     69.57% # Class of executed instruction
system.cpu1.op_class::SimdShaSigma3                 0      0.00%     69.57% # Class of executed instruction
system.cpu1.op_class::SimdPredAlu                   0      0.00%     69.57% # Class of executed instruction
system.cpu1.op_class::MemRead                       2      8.70%     78.26% # Class of executed instruction
system.cpu1.op_class::MemWrite                      0      0.00%     78.26% # Class of executed instruction
system.cpu1.op_class::FloatMemRead                  4     17.39%     95.65% # Class of executed instruction
system.cpu1.op_class::FloatMemWrite                 1      4.35%    100.00% # Class of executed instruction
system.cpu1.op_class::IprAccess                     0      0.00%    100.00% # Class of executed instruction
system.cpu1.op_class::InstPrefetch                  0      0.00%    100.00% # Class of executed instruction
system.cpu1.op_class::total                        23                       # Class of executed instruction
system.cpu1.workload.numSyscalls                    0                       # Number of system calls
system.cpu2.Branches                                1                       # Number of branches fetched
system.cpu2.committedInsts                         17                       # Number of instructions committed
system.cpu2.committedOps                           23                       # Number of ops (including micro ops) committed
system.cpu2.idle_fraction                           0                       # Percentage of idle cycles
system.cpu2.l2bus.snoop_filter.hit_multi_requests            0                       # Number of requests hitting in the snoop filter with multiple (>1) holders of the requested data.
system.cpu2.l2bus.snoop_filter.hit_multi_snoops            0                       # Number of snoops hitting in the snoop filter with multiple (>1) holders of the requested data.
system.cpu2.l2bus.snoop_filter.hit_single_requests      1822791                       # Number of requests hitting in the snoop filter with a single holder of the requested data.
system.cpu2.l2bus.snoop_filter.hit_single_snoops          479                       # Number of snoops hitting in the snoop filter with a single holder of the requested data.
system.cpu2.l2bus.snoop_filter.tot_requests      3636705                       # Total number of requests made to the snoop filter.
system.cpu2.l2bus.snoop_filter.tot_snoops          479                       # Total number of snoops made to the snoop filter.
system.cpu2.mmucache.mmubus.snoop_filter.hit_multi_requests            0                       # Number of requests hitting in the snoop filter with multiple (>1) holders of the requested data.
system.cpu2.mmucache.mmubus.snoop_filter.hit_multi_snoops            0                       # Number of snoops hitting in the snoop filter with multiple (>1) holders of the requested data.
system.cpu2.mmucache.mmubus.snoop_filter.hit_single_requests            0                       # Number of requests hitting in the snoop filter with a single holder of the requested data.
system.cpu2.mmucache.mmubus.snoop_filter.hit_single_snoops            0                       # Number of snoops hitting in the snoop filter with a single holder of the requested data.
system.cpu2.mmucache.mmubus.snoop_filter.tot_requests            0                       # Total number of requests made to the snoop filter.
system.cpu2.mmucache.mmubus.snoop_filter.tot_snoops            0                       # Total number of snoops made to the snoop filter.
system.cpu2.not_idle_fraction                       1                       # Percentage of non-idle cycles
system.cpu2.numCycles                              30                       # number of cpu cycles simulated
system.cpu2.numWorkItemsCompleted                   0                       # number of work items this cpu completed
system.cpu2.numWorkItemsStarted                     0                       # number of work items this cpu started
system.cpu2.num_busy_cycles                        30                       # Number of busy cycles
system.cpu2.num_cc_register_reads                   5                       # number of times the CC registers were read
system.cpu2.num_cc_register_writes                  2                       # number of times the CC registers were written
system.cpu2.num_conditional_control_insts            1                       # number of instructions that are conditional controls
system.cpu2.num_fp_alu_accesses                    14                       # Number of float alu accesses
system.cpu2.num_fp_insts                           14                       # number of float instructions
system.cpu2.num_fp_register_reads                  30                       # number of times the floating registers were read
system.cpu2.num_fp_register_writes                 14                       # number of times the floating registers were written
system.cpu2.num_func_calls                          0                       # number of times a function call or return occured
system.cpu2.num_idle_cycles                         0                       # Number of idle cycles
system.cpu2.num_int_alu_accesses                   12                       # Number of integer alu accesses
system.cpu2.num_int_insts                          12                       # number of integer instructions
system.cpu2.num_int_register_reads                 25                       # number of times the integer registers were read
system.cpu2.num_int_register_writes                 8                       # number of times the integer registers were written
system.cpu2.num_load_insts                          3                       # Number of load instructions
system.cpu2.num_mem_refs                            3                       # number of memory refs
system.cpu2.num_store_insts                         0                       # Number of store instructions
system.cpu2.num_vec_alu_accesses                    0                       # Number of vector alu accesses
system.cpu2.num_vec_insts                           0                       # number of vector instructions
system.cpu2.num_vec_register_reads                  0                       # number of times the vector registers were read
system.cpu2.num_vec_register_writes                 0                       # number of times the vector registers were written
system.cpu2.op_class::No_OpClass                    0      0.00%      0.00% # Class of executed instruction
system.cpu2.op_class::IntAlu                       12     52.17%     52.17% # Class of executed instruction
system.cpu2.op_class::IntMult                       0      0.00%     52.17% # Class of executed instruction
system.cpu2.op_class::IntDiv                        0      0.00%     52.17% # Class of executed instruction
system.cpu2.op_class::FloatAdd                      0      0.00%     52.17% # Class of executed instruction
system.cpu2.op_class::FloatCmp                      0      0.00%     52.17% # Class of executed instruction
system.cpu2.op_class::FloatCvt                      0      0.00%     52.17% # Class of executed instruction
system.cpu2.op_class::FloatMult                     0      0.00%     52.17% # Class of executed instruction
system.cpu2.op_class::FloatMultAcc                  0      0.00%     52.17% # Class of executed instruction
system.cpu2.op_class::FloatDiv                      0      0.00%     52.17% # Class of executed instruction
system.cpu2.op_class::FloatMisc                     0      0.00%     52.17% # Class of executed instruction
system.cpu2.op_class::FloatSqrt                     0      0.00%     52.17% # Class of executed instruction
system.cpu2.op_class::SimdAdd                       0      0.00%     52.17% # Class of executed instruction
system.cpu2.op_class::SimdAddAcc                    0      0.00%     52.17% # Class of executed instruction
system.cpu2.op_class::SimdAlu                       0      0.00%     52.17% # Class of executed instruction
system.cpu2.op_class::SimdCmp                       0      0.00%     52.17% # Class of executed instruction
system.cpu2.op_class::SimdCvt                       0      0.00%     52.17% # Class of executed instruction
system.cpu2.op_class::SimdMisc                      0      0.00%     52.17% # Class of executed instruction
system.cpu2.op_class::SimdMult                      0      0.00%     52.17% # Class of executed instruction
system.cpu2.op_class::SimdMultAcc                   0      0.00%     52.17% # Class of executed instruction
system.cpu2.op_class::SimdShift                     0      0.00%     52.17% # Class of executed instruction
system.cpu2.op_class::SimdShiftAcc                  0      0.00%     52.17% # Class of executed instruction
system.cpu2.op_class::SimdDiv                       0      0.00%     52.17% # Class of executed instruction
system.cpu2.op_class::SimdSqrt                      0      0.00%     52.17% # Class of executed instruction
system.cpu2.op_class::SimdFloatAdd                  5     21.74%     73.91% # Class of executed instruction
system.cpu2.op_class::SimdFloatAlu                  0      0.00%     73.91% # Class of executed instruction
system.cpu2.op_class::SimdFloatCmp                  0      0.00%     73.91% # Class of executed instruction
system.cpu2.op_class::SimdFloatCvt                  0      0.00%     73.91% # Class of executed instruction
system.cpu2.op_class::SimdFloatDiv                  0      0.00%     73.91% # Class of executed instruction
system.cpu2.op_class::SimdFloatMisc                 0      0.00%     73.91% # Class of executed instruction
system.cpu2.op_class::SimdFloatMult                 3     13.04%     86.96% # Class of executed instruction
system.cpu2.op_class::SimdFloatMultAcc              0      0.00%     86.96% # Class of executed instruction
system.cpu2.op_class::SimdFloatSqrt                 0      0.00%     86.96% # Class of executed instruction
system.cpu2.op_class::SimdReduceAdd                 0      0.00%     86.96% # Class of executed instruction
system.cpu2.op_class::SimdReduceAlu                 0      0.00%     86.96% # Class of executed instruction
system.cpu2.op_class::SimdReduceCmp                 0      0.00%     86.96% # Class of executed instruction
system.cpu2.op_class::SimdFloatReduceAdd            0      0.00%     86.96% # Class of executed instruction
system.cpu2.op_class::SimdFloatReduceCmp            0      0.00%     86.96% # Class of executed instruction
system.cpu2.op_class::SimdAes                       0      0.00%     86.96% # Class of executed instruction
system.cpu2.op_class::SimdAesMix                    0      0.00%     86.96% # Class of executed instruction
system.cpu2.op_class::SimdSha1Hash                  0      0.00%     86.96% # Class of executed instruction
system.cpu2.op_class::SimdSha1Hash2                 0      0.00%     86.96% # Class of executed instruction
system.cpu2.op_class::SimdSha256Hash                0      0.00%     86.96% # Class of executed instruction
system.cpu2.op_class::SimdSha256Hash2               0      0.00%     86.96% # Class of executed instruction
system.cpu2.op_class::SimdShaSigma2                 0      0.00%     86.96% # Class of executed instruction
system.cpu2.op_class::SimdShaSigma3                 0      0.00%     86.96% # Class of executed instruction
system.cpu2.op_class::SimdPredAlu                   0      0.00%     86.96% # Class of executed instruction
system.cpu2.op_class::MemRead                       0      0.00%     86.96% # Class of executed instruction
system.cpu2.op_class::MemWrite                      0      0.00%     86.96% # Class of executed instruction
system.cpu2.op_class::FloatMemRead                  3     13.04%    100.00% # Class of executed instruction
system.cpu2.op_class::FloatMemWrite                 0      0.00%    100.00% # Class of executed instruction
system.cpu2.op_class::IprAccess                     0      0.00%    100.00% # Class of executed instruction
system.cpu2.op_class::InstPrefetch                  0      0.00%    100.00% # Class of executed instruction
system.cpu2.op_class::total                        23                       # Class of executed instruction
system.cpu2.workload.numSyscalls                    0                       # Number of system calls
system.cpu3.Branches                                2                       # Number of branches fetched
system.cpu3.committedInsts                         16                       # Number of instructions committed
system.cpu3.committedOps                           28                       # Number of ops (including micro ops) committed
system.cpu3.idle_fraction                           0                       # Percentage of idle cycles
system.cpu3.l2bus.snoop_filter.hit_multi_requests            2                       # Number of requests hitting in the snoop filter with multiple (>1) holders of the requested data.
system.cpu3.l2bus.snoop_filter.hit_multi_snoops            0                       # Number of snoops hitting in the snoop filter with multiple (>1) holders of the requested data.
system.cpu3.l2bus.snoop_filter.hit_single_requests        35229                       # Number of requests hitting in the snoop filter with a single holder of the requested data.
system.cpu3.l2bus.snoop_filter.hit_single_snoops          526                       # Number of snoops hitting in the snoop filter with a single holder of the requested data.
system.cpu3.l2bus.snoop_filter.tot_requests        71245                       # Total number of requests made to the snoop filter.
system.cpu3.l2bus.snoop_filter.tot_snoops          526                       # Total number of snoops made to the snoop filter.
system.cpu3.mmucache.mmubus.snoop_filter.hit_multi_requests            0                       # Number of requests hitting in the snoop filter with multiple (>1) holders of the requested data.
system.cpu3.mmucache.mmubus.snoop_filter.hit_multi_snoops            0                       # Number of snoops hitting in the snoop filter with multiple (>1) holders of the requested data.
system.cpu3.mmucache.mmubus.snoop_filter.hit_single_requests            0                       # Number of requests hitting in the snoop filter with a single holder of the requested data.
system.cpu3.mmucache.mmubus.snoop_filter.hit_single_snoops            0                       # Number of snoops hitting in the snoop filter with a single holder of the requested data.
system.cpu3.mmucache.mmubus.snoop_filter.tot_requests            0                       # Total number of requests made to the snoop filter.
system.cpu3.mmucache.mmubus.snoop_filter.tot_snoops            0                       # Total number of snoops made to the snoop filter.
system.cpu3.not_idle_fraction                       1                       # Percentage of non-idle cycles
system.cpu3.numCycles                              31                       # number of cpu cycles simulated
system.cpu3.numWorkItemsCompleted                   0                       # number of work items this cpu completed
system.cpu3.numWorkItemsStarted                     0                       # number of work items this cpu started
system.cpu3.num_busy_cycles                        31                       # Number of busy cycles
system.cpu3.num_cc_register_reads                  10                       # number of times the CC registers were read
system.cpu3.num_cc_register_writes                 18                       # number of times the CC registers were written
system.cpu3.num_conditional_control_insts            2                       # number of instructions that are conditional controls
system.cpu3.num_fp_alu_accesses                     0                       # Number of float alu accesses
system.cpu3.num_fp_insts                            0                       # number of float instructions
system.cpu3.num_fp_register_reads                   0                       # number of times the floating registers were read
system.cpu3.num_fp_register_writes                  0                       # number of times the floating registers were written
system.cpu3.num_func_calls                          0                       # number of times a function call or return occured
system.cpu3.num_idle_cycles                         0                       # Number of idle cycles
system.cpu3.num_int_alu_accesses                   28                       # Number of integer alu accesses
system.cpu3.num_int_insts                          28                       # number of integer instructions
system.cpu3.num_int_register_reads                 54                       # number of times the integer registers were read
system.cpu3.num_int_register_writes                28                       # number of times the integer registers were written
system.cpu3.num_load_insts                          6                       # Number of load instructions
system.cpu3.num_mem_refs                            6                       # number of memory refs
system.cpu3.num_store_insts                         0                       # Number of store instructions
system.cpu3.num_vec_alu_accesses                    0                       # Number of vector alu accesses
system.cpu3.num_vec_insts                           0                       # number of vector instructions
system.cpu3.num_vec_register_reads                  0                       # number of times the vector registers were read
system.cpu3.num_vec_register_writes                 0                       # number of times the vector registers were written
system.cpu3.op_class::No_OpClass                    0      0.00%      0.00% # Class of executed instruction
system.cpu3.op_class::IntAlu                       20     71.43%     71.43% # Class of executed instruction
system.cpu3.op_class::IntMult                       2      7.14%     78.57% # Class of executed instruction
system.cpu3.op_class::IntDiv                        0      0.00%     78.57% # Class of executed instruction
system.cpu3.op_class::FloatAdd                      0      0.00%     78.57% # Class of executed instruction
system.cpu3.op_class::FloatCmp                      0      0.00%     78.57% # Class of executed instruction
system.cpu3.op_class::FloatCvt                      0      0.00%     78.57% # Class of executed instruction
system.cpu3.op_class::FloatMult                     0      0.00%     78.57% # Class of executed instruction
system.cpu3.op_class::FloatMultAcc                  0      0.00%     78.57% # Class of executed instruction
system.cpu3.op_class::FloatDiv                      0      0.00%     78.57% # Class of executed instruction
system.cpu3.op_class::FloatMisc                     0      0.00%     78.57% # Class of executed instruction
system.cpu3.op_class::FloatSqrt                     0      0.00%     78.57% # Class of executed instruction
system.cpu3.op_class::SimdAdd                       0      0.00%     78.57% # Class of executed instruction
system.cpu3.op_class::SimdAddAcc                    0      0.00%     78.57% # Class of executed instruction
system.cpu3.op_class::SimdAlu                       0      0.00%     78.57% # Class of executed instruction
system.cpu3.op_class::SimdCmp                       0      0.00%     78.57% # Class of executed instruction
system.cpu3.op_class::SimdCvt                       0      0.00%     78.57% # Class of executed instruction
system.cpu3.op_class::SimdMisc                      0      0.00%     78.57% # Class of executed instruction
system.cpu3.op_class::SimdMult                      0      0.00%     78.57% # Class of executed instruction
system.cpu3.op_class::SimdMultAcc                   0      0.00%     78.57% # Class of executed instruction
system.cpu3.op_class::SimdShift                     0      0.00%     78.57% # Class of executed instruction
system.cpu3.op_class::SimdShiftAcc                  0      0.00%     78.57% # Class of executed instruction
system.cpu3.op_class::SimdDiv                       0      0.00%     78.57% # Class of executed instruction
system.cpu3.op_class::SimdSqrt                      0      0.00%     78.57% # Class of executed instruction
system.cpu3.op_class::SimdFloatAdd                  0      0.00%     78.57% # Class of executed instruction
system.cpu3.op_class::SimdFloatAlu                  0      0.00%     78.57% # Class of executed instruction
system.cpu3.op_class::SimdFloatCmp                  0      0.00%     78.57% # Class of executed instruction
system.cpu3.op_class::SimdFloatCvt                  0      0.00%     78.57% # Class of executed instruction
system.cpu3.op_class::SimdFloatDiv                  0      0.00%     78.57% # Class of executed instruction
system.cpu3.op_class::SimdFloatMisc                 0      0.00%     78.57% # Class of executed instruction
system.cpu3.op_class::SimdFloatMult                 0      0.00%     78.57% # Class of executed instruction
system.cpu3.op_class::SimdFloatMultAcc              0      0.00%     78.57% # Class of executed instruction
system.cpu3.op_class::SimdFloatSqrt                 0      0.00%     78.57% # Class of executed instruction
system.cpu3.op_class::SimdReduceAdd                 0      0.00%     78.57% # Class of executed instruction
system.cpu3.op_class::SimdReduceAlu                 0      0.00%     78.57% # Class of executed instruction
system.cpu3.op_class::SimdReduceCmp                 0      0.00%     78.57% # Class of executed instruction
system.cpu3.op_class::SimdFloatReduceAdd            0      0.00%     78.57% # Class of executed instruction
system.cpu3.op_class::SimdFloatReduceCmp            0      0.00%     78.57% # Class of executed instruction
system.cpu3.op_class::SimdAes                       0      0.00%     78.57% # Class of executed instruction
system.cpu3.op_class::SimdAesMix                    0      0.00%     78.57% # Class of executed instruction
system.cpu3.op_class::SimdSha1Hash                  0      0.00%     78.57% # Class of executed instruction
system.cpu3.op_class::SimdSha1Hash2                 0      0.00%     78.57% # Class of executed instruction
system.cpu3.op_class::SimdSha256Hash                0      0.00%     78.57% # Class of executed instruction
system.cpu3.op_class::SimdSha256Hash2               0      0.00%     78.57% # Class of executed instruction
system.cpu3.op_class::SimdShaSigma2                 0      0.00%     78.57% # Class of executed instruction
system.cpu3.op_class::SimdShaSigma3                 0      0.00%     78.57% # Class of executed instruction
system.cpu3.op_class::SimdPredAlu                   0      0.00%     78.57% # Class of executed instruction
system.cpu3.op_class::MemRead                       6     21.43%    100.00% # Class of executed instruction
system.cpu3.op_class::MemWrite                      0      0.00%    100.00% # Class of executed instruction
system.cpu3.op_class::FloatMemRead                  0      0.00%    100.00% # Class of executed instruction
system.cpu3.op_class::FloatMemWrite                 0      0.00%    100.00% # Class of executed instruction
system.cpu3.op_class::IprAccess                     0      0.00%    100.00% # Class of executed instruction
system.cpu3.op_class::InstPrefetch                  0      0.00%    100.00% # Class of executed instruction
system.cpu3.op_class::total                        28                       # Class of executed instruction
system.cpu3.workload.numSyscalls                    0                       # Number of system calls
system.l3bus.snoop_filter.hit_multi_requests            0                       # Number of requests hitting in the snoop filter with multiple (>1) holders of the requested data.
system.l3bus.snoop_filter.hit_multi_snoops            0                       # Number of snoops hitting in the snoop filter with multiple (>1) holders of the requested data.
system.l3bus.snoop_filter.hit_single_requests      1200099                       # Number of requests hitting in the snoop filter with a single holder of the requested data.
system.l3bus.snoop_filter.hit_single_snoops            0                       # Number of snoops hitting in the snoop filter with a single holder of the requested data.
system.l3bus.snoop_filter.tot_requests        2415639                       # Total number of requests made to the snoop filter.
system.l3bus.snoop_filter.tot_snoops                0                       # Total number of snoops made to the snoop filter.
system.membus.snoop_filter.hit_multi_requests            0                       # Number of requests hitting in the snoop filter with multiple (>1) holders of the requested data.
system.membus.snoop_filter.hit_multi_snoops            0                       # Number of snoops hitting in the snoop filter with multiple (>1) holders of the requested data.
system.membus.snoop_filter.hit_single_requests       633388                       # Number of requests hitting in the snoop filter with a single holder of the requested data.
system.membus.snoop_filter.hit_single_snoops            0                       # Number of snoops hitting in the snoop filter with a single holder of the requested data.
system.membus.snoop_filter.tot_requests       1344701                       # Total number of requests made to the snoop filter.
system.membus.snoop_filter.tot_snoops               0                       # Total number of snoops made to the snoop filter.
system.switch_cpus0.cc_regfile_reads        204891491                       # number of cc regfile reads
system.switch_cpus0.cc_regfile_writes       100633269                       # number of cc regfile writes
system.switch_cpus0.committedInsts          250000000                       # Number of Instructions Simulated
system.switch_cpus0.committedOps            450592841                       # Number of Ops (including micro ops) Simulated
system.switch_cpus0.cpi                      0.400174                       # CPI: Cycles Per Instruction
system.switch_cpus0.cpi_total                0.400174                       # CPI: Total CPI of All Threads
system.switch_cpus0.fp_regfile_reads        146838772                       # number of floating regfile reads
system.switch_cpus0.fp_regfile_writes        84291796                       # number of floating regfile writes
system.switch_cpus0.idleCycles                 101135                       # Total number of cycles that the CPU has spent unscheduled due to idling
system.switch_cpus0.iew.branchMispredicts      1080488                       # Number of branch mispredicts detected at execute
system.switch_cpus0.iew.exec_branches        46342066                       # Number of branches executed
system.switch_cpus0.iew.exec_nop                    0                       # number of nop insts executed
system.switch_cpus0.iew.exec_rate            4.803845                       # Inst execution rate
system.switch_cpus0.iew.exec_refs           140953384                       # number of memory reference insts executed
system.switch_cpus0.iew.exec_stores          42843222                       # Number of stores executed
system.switch_cpus0.iew.exec_swp                    0                       # number of swp insts executed
system.switch_cpus0.iew.iewBlockCycles        6366290                       # Number of cycles IEW is blocking
system.switch_cpus0.iew.iewDispLoadInsts    102915745                       # Number of dispatched load instructions
system.switch_cpus0.iew.iewDispNonSpecInsts           10                       # Number of dispatched non-speculative instructions
system.switch_cpus0.iew.iewDispSquashedInsts          395                       # Number of squashed instructions skipped by dispatch
system.switch_cpus0.iew.iewDispStoreInsts     45575699                       # Number of dispatched store instructions
system.switch_cpus0.iew.iewDispatchedInsts    503162406                       # Number of instructions dispatched to IQ
system.switch_cpus0.iew.iewExecLoadInsts     98110162                       # Number of load instructions executed
system.switch_cpus0.iew.iewExecSquashedInsts      2942730                       # Number of squashed instructions skipped in execute
system.switch_cpus0.iew.iewExecutedInsts    480593915                       # Number of executed instructions
system.switch_cpus0.iew.iewIQFullEvents         10928                       # Number of times the IQ has become full, causing a stall
system.switch_cpus0.iew.iewIdleCycles               0                       # Number of cycles IEW is idle
system.switch_cpus0.iew.iewLSQFullEvents       177032                       # Number of times the LSQ has become full, causing a stall
system.switch_cpus0.iew.iewSquashCycles        985077                       # Number of cycles IEW is squashing
system.switch_cpus0.iew.iewUnblockCycles       191879                       # Number of cycles IEW is unblocking
system.switch_cpus0.iew.memOrderViolationEvents        18408                       # Number of memory order violations
system.switch_cpus0.iew.predictedNotTakenIncorrect       699808                       # Number of branches that were predicted not taken incorrectly
system.switch_cpus0.iew.predictedTakenIncorrect       380680                       # Number of branches that were predicted taken incorrectly
system.switch_cpus0.iew.wb_consumers        628381160                       # num instructions consuming a value
system.switch_cpus0.iew.wb_count            478840406                       # cumulative count of insts written-back
system.switch_cpus0.iew.wb_fanout            0.567297                       # average fanout of values written-back
system.switch_cpus0.iew.wb_producers        356478880                       # num instructions producing a value
system.switch_cpus0.iew.wb_rate              4.786317                       # insts written-back per cycle
system.switch_cpus0.iew.wb_sent             480076908                       # cumulative count of insts sent to commit
system.switch_cpus0.int_regfile_reads       665312687                       # number of integer regfile reads
system.switch_cpus0.int_regfile_writes      299891162                       # number of integer regfile writes
system.switch_cpus0.ipc                      2.498911                       # IPC: Instructions Per Cycle
system.switch_cpus0.ipc_total                2.498911                       # IPC: Total IPC of All Threads
system.switch_cpus0.iq.FU_type_0::No_OpClass      2593401      0.54%      0.54% # Type of FU issued
system.switch_cpus0.iq.FU_type_0::IntAlu    289863242     59.95%     60.48% # Type of FU issued
system.switch_cpus0.iq.FU_type_0::IntMult       996881      0.21%     60.69% # Type of FU issued
system.switch_cpus0.iq.FU_type_0::IntDiv            0      0.00%     60.69% # Type of FU issued
system.switch_cpus0.iq.FU_type_0::FloatAdd      1282807      0.27%     60.95% # Type of FU issued
system.switch_cpus0.iq.FU_type_0::FloatCmp            0      0.00%     60.95% # Type of FU issued
system.switch_cpus0.iq.FU_type_0::FloatCvt            0      0.00%     60.95% # Type of FU issued
system.switch_cpus0.iq.FU_type_0::FloatMult            0      0.00%     60.95% # Type of FU issued
system.switch_cpus0.iq.FU_type_0::FloatMultAcc            0      0.00%     60.95% # Type of FU issued
system.switch_cpus0.iq.FU_type_0::FloatDiv            0      0.00%     60.95% # Type of FU issued
system.switch_cpus0.iq.FU_type_0::FloatMisc            0      0.00%     60.95% # Type of FU issued
system.switch_cpus0.iq.FU_type_0::FloatSqrt            0      0.00%     60.95% # Type of FU issued
system.switch_cpus0.iq.FU_type_0::SimdAdd            0      0.00%     60.95% # Type of FU issued
system.switch_cpus0.iq.FU_type_0::SimdAddAcc            0      0.00%     60.95% # Type of FU issued
system.switch_cpus0.iq.FU_type_0::SimdAlu      3080880      0.64%     61.59% # Type of FU issued
system.switch_cpus0.iq.FU_type_0::SimdCmp            0      0.00%     61.59% # Type of FU issued
system.switch_cpus0.iq.FU_type_0::SimdCvt            0      0.00%     61.59% # Type of FU issued
system.switch_cpus0.iq.FU_type_0::SimdMisc       203098      0.04%     61.63% # Type of FU issued
system.switch_cpus0.iq.FU_type_0::SimdMult            0      0.00%     61.63% # Type of FU issued
system.switch_cpus0.iq.FU_type_0::SimdMultAcc            0      0.00%     61.63% # Type of FU issued
system.switch_cpus0.iq.FU_type_0::SimdShift            0      0.00%     61.63% # Type of FU issued
system.switch_cpus0.iq.FU_type_0::SimdShiftAcc            0      0.00%     61.63% # Type of FU issued
system.switch_cpus0.iq.FU_type_0::SimdDiv            0      0.00%     61.63% # Type of FU issued
system.switch_cpus0.iq.FU_type_0::SimdSqrt            0      0.00%     61.63% # Type of FU issued
system.switch_cpus0.iq.FU_type_0::SimdFloatAdd     17405167      3.60%     65.23% # Type of FU issued
system.switch_cpus0.iq.FU_type_0::SimdFloatAlu            0      0.00%     65.23% # Type of FU issued
system.switch_cpus0.iq.FU_type_0::SimdFloatCmp        59472      0.01%     65.25% # Type of FU issued
system.switch_cpus0.iq.FU_type_0::SimdFloatCvt      7601276      1.57%     66.82% # Type of FU issued
system.switch_cpus0.iq.FU_type_0::SimdFloatDiv       597651      0.12%     66.94% # Type of FU issued
system.switch_cpus0.iq.FU_type_0::SimdFloatMisc            0      0.00%     66.94% # Type of FU issued
system.switch_cpus0.iq.FU_type_0::SimdFloatMult     17297926      3.58%     70.52% # Type of FU issued
system.switch_cpus0.iq.FU_type_0::SimdFloatMultAcc            0      0.00%     70.52% # Type of FU issued
system.switch_cpus0.iq.FU_type_0::SimdFloatSqrt        42879      0.01%     70.53% # Type of FU issued
system.switch_cpus0.iq.FU_type_0::SimdReduceAdd            0      0.00%     70.53% # Type of FU issued
system.switch_cpus0.iq.FU_type_0::SimdReduceAlu            0      0.00%     70.53% # Type of FU issued
system.switch_cpus0.iq.FU_type_0::SimdReduceCmp            0      0.00%     70.53% # Type of FU issued
system.switch_cpus0.iq.FU_type_0::SimdFloatReduceAdd            0      0.00%     70.53% # Type of FU issued
system.switch_cpus0.iq.FU_type_0::SimdFloatReduceCmp            0      0.00%     70.53% # Type of FU issued
system.switch_cpus0.iq.FU_type_0::SimdAes            0      0.00%     70.53% # Type of FU issued
system.switch_cpus0.iq.FU_type_0::SimdAesMix            0      0.00%     70.53% # Type of FU issued
system.switch_cpus0.iq.FU_type_0::SimdSha1Hash            0      0.00%     70.53% # Type of FU issued
system.switch_cpus0.iq.FU_type_0::SimdSha1Hash2            0      0.00%     70.53% # Type of FU issued
system.switch_cpus0.iq.FU_type_0::SimdSha256Hash            0      0.00%     70.53% # Type of FU issued
system.switch_cpus0.iq.FU_type_0::SimdSha256Hash2            0      0.00%     70.53% # Type of FU issued
system.switch_cpus0.iq.FU_type_0::SimdShaSigma2            0      0.00%     70.53% # Type of FU issued
system.switch_cpus0.iq.FU_type_0::SimdShaSigma3            0      0.00%     70.53% # Type of FU issued
system.switch_cpus0.iq.FU_type_0::SimdPredAlu            0      0.00%     70.53% # Type of FU issued
system.switch_cpus0.iq.FU_type_0::MemRead     61562213     12.73%     83.26% # Type of FU issued
system.switch_cpus0.iq.FU_type_0::MemWrite     36568329      7.56%     90.82% # Type of FU issued
system.switch_cpus0.iq.FU_type_0::FloatMemRead     37758770      7.81%     98.63% # Type of FU issued
system.switch_cpus0.iq.FU_type_0::FloatMemWrite      6622656      1.37%    100.00% # Type of FU issued
system.switch_cpus0.iq.FU_type_0::IprAccess            0      0.00%    100.00% # Type of FU issued
system.switch_cpus0.iq.FU_type_0::InstPrefetch            0      0.00%    100.00% # Type of FU issued
system.switch_cpus0.iq.FU_type_0::total     483536648                       # Type of FU issued
system.switch_cpus0.iq.fp_alu_accesses      103478748                       # Number of floating point alu accesses
system.switch_cpus0.iq.fp_inst_queue_reads    201948318                       # Number of floating instruction queue reads
system.switch_cpus0.iq.fp_inst_queue_wakeup_accesses     97034628                       # Number of floating instruction queue wakeup accesses
system.switch_cpus0.iq.fp_inst_queue_writes    108787129                       # Number of floating instruction queue writes
system.switch_cpus0.iq.fu_busy_cnt           13850469                       # FU busy when requested
system.switch_cpus0.iq.fu_busy_rate          0.028644                       # FU busy rate (busy events/executed inst)
system.switch_cpus0.iq.fu_full::No_OpClass            0      0.00%      0.00% # attempts to use FU when none available
system.switch_cpus0.iq.fu_full::IntAlu        4052807     29.26%     29.26% # attempts to use FU when none available
system.switch_cpus0.iq.fu_full::IntMult             0      0.00%     29.26% # attempts to use FU when none available
system.switch_cpus0.iq.fu_full::IntDiv              0      0.00%     29.26% # attempts to use FU when none available
system.switch_cpus0.iq.fu_full::FloatAdd        10046      0.07%     29.33% # attempts to use FU when none available
system.switch_cpus0.iq.fu_full::FloatCmp            0      0.00%     29.33% # attempts to use FU when none available
system.switch_cpus0.iq.fu_full::FloatCvt            0      0.00%     29.33% # attempts to use FU when none available
system.switch_cpus0.iq.fu_full::FloatMult            0      0.00%     29.33% # attempts to use FU when none available
system.switch_cpus0.iq.fu_full::FloatMultAcc            0      0.00%     29.33% # attempts to use FU when none available
system.switch_cpus0.iq.fu_full::FloatDiv            0      0.00%     29.33% # attempts to use FU when none available
system.switch_cpus0.iq.fu_full::FloatMisc            0      0.00%     29.33% # attempts to use FU when none available
system.switch_cpus0.iq.fu_full::FloatSqrt            0      0.00%     29.33% # attempts to use FU when none available
system.switch_cpus0.iq.fu_full::SimdAdd             0      0.00%     29.33% # attempts to use FU when none available
system.switch_cpus0.iq.fu_full::SimdAddAcc            0      0.00%     29.33% # attempts to use FU when none available
system.switch_cpus0.iq.fu_full::SimdAlu        206782      1.49%     30.83% # attempts to use FU when none available
system.switch_cpus0.iq.fu_full::SimdCmp             0      0.00%     30.83% # attempts to use FU when none available
system.switch_cpus0.iq.fu_full::SimdCvt             0      0.00%     30.83% # attempts to use FU when none available
system.switch_cpus0.iq.fu_full::SimdMisc            8      0.00%     30.83% # attempts to use FU when none available
system.switch_cpus0.iq.fu_full::SimdMult            0      0.00%     30.83% # attempts to use FU when none available
system.switch_cpus0.iq.fu_full::SimdMultAcc            0      0.00%     30.83% # attempts to use FU when none available
system.switch_cpus0.iq.fu_full::SimdShift            0      0.00%     30.83% # attempts to use FU when none available
system.switch_cpus0.iq.fu_full::SimdShiftAcc            0      0.00%     30.83% # attempts to use FU when none available
system.switch_cpus0.iq.fu_full::SimdDiv             0      0.00%     30.83% # attempts to use FU when none available
system.switch_cpus0.iq.fu_full::SimdSqrt            0      0.00%     30.83% # attempts to use FU when none available
system.switch_cpus0.iq.fu_full::SimdFloatAdd       499418      3.61%     34.43% # attempts to use FU when none available
system.switch_cpus0.iq.fu_full::SimdFloatAlu            0      0.00%     34.43% # attempts to use FU when none available
system.switch_cpus0.iq.fu_full::SimdFloatCmp            0      0.00%     34.43% # attempts to use FU when none available
system.switch_cpus0.iq.fu_full::SimdFloatCvt        51390      0.37%     34.80% # attempts to use FU when none available
system.switch_cpus0.iq.fu_full::SimdFloatDiv            0      0.00%     34.80% # attempts to use FU when none available
system.switch_cpus0.iq.fu_full::SimdFloatMisc            0      0.00%     34.80% # attempts to use FU when none available
system.switch_cpus0.iq.fu_full::SimdFloatMult       338894      2.45%     37.25% # attempts to use FU when none available
system.switch_cpus0.iq.fu_full::SimdFloatMultAcc            0      0.00%     37.25% # attempts to use FU when none available
system.switch_cpus0.iq.fu_full::SimdFloatSqrt            0      0.00%     37.25% # attempts to use FU when none available
system.switch_cpus0.iq.fu_full::SimdReduceAdd            0      0.00%     37.25% # attempts to use FU when none available
system.switch_cpus0.iq.fu_full::SimdReduceAlu            0      0.00%     37.25% # attempts to use FU when none available
system.switch_cpus0.iq.fu_full::SimdReduceCmp            0      0.00%     37.25% # attempts to use FU when none available
system.switch_cpus0.iq.fu_full::SimdFloatReduceAdd            0      0.00%     37.25% # attempts to use FU when none available
system.switch_cpus0.iq.fu_full::SimdFloatReduceCmp            0      0.00%     37.25% # attempts to use FU when none available
system.switch_cpus0.iq.fu_full::SimdAes             0      0.00%     37.25% # attempts to use FU when none available
system.switch_cpus0.iq.fu_full::SimdAesMix            0      0.00%     37.25% # attempts to use FU when none available
system.switch_cpus0.iq.fu_full::SimdSha1Hash            0      0.00%     37.25% # attempts to use FU when none available
system.switch_cpus0.iq.fu_full::SimdSha1Hash2            0      0.00%     37.25% # attempts to use FU when none available
system.switch_cpus0.iq.fu_full::SimdSha256Hash            0      0.00%     37.25% # attempts to use FU when none available
system.switch_cpus0.iq.fu_full::SimdSha256Hash2            0      0.00%     37.25% # attempts to use FU when none available
system.switch_cpus0.iq.fu_full::SimdShaSigma2            0      0.00%     37.25% # attempts to use FU when none available
system.switch_cpus0.iq.fu_full::SimdShaSigma3            0      0.00%     37.25% # attempts to use FU when none available
system.switch_cpus0.iq.fu_full::SimdPredAlu            0      0.00%     37.25% # attempts to use FU when none available
system.switch_cpus0.iq.fu_full::MemRead       3353630     24.21%     61.46% # attempts to use FU when none available
system.switch_cpus0.iq.fu_full::MemWrite      1159430      8.37%     69.83% # attempts to use FU when none available
system.switch_cpus0.iq.fu_full::FloatMemRead      3614256     26.09%     95.93% # attempts to use FU when none available
system.switch_cpus0.iq.fu_full::FloatMemWrite       563808      4.07%    100.00% # attempts to use FU when none available
system.switch_cpus0.iq.fu_full::IprAccess            0      0.00%    100.00% # attempts to use FU when none available
system.switch_cpus0.iq.fu_full::InstPrefetch            0      0.00%    100.00% # attempts to use FU when none available
system.switch_cpus0.iq.int_alu_accesses     391314968                       # Number of integer alu accesses
system.switch_cpus0.iq.int_inst_queue_reads    879729215                       # Number of integer instruction queue reads
system.switch_cpus0.iq.int_inst_queue_wakeup_accesses    381805778                       # Number of integer instruction queue wakeup accesses
system.switch_cpus0.iq.int_inst_queue_writes    446962977                       # Number of integer instruction queue writes
system.switch_cpus0.iq.iqInstsAdded         503162390                       # Number of instructions added to the IQ (excludes non-spec)
system.switch_cpus0.iq.iqInstsIssued        483536648                       # Number of instructions issued
system.switch_cpus0.iq.iqNonSpecInstsAdded           16                       # Number of non-speculative instructions added to the IQ
system.switch_cpus0.iq.iqSquashedInstsExamined     52569537                       # Number of squashed instructions iterated over during squash; mainly for profiling
system.switch_cpus0.iq.iqSquashedInstsIssued       811308                       # Number of squashed instructions issued
system.switch_cpus0.iq.iqSquashedNonSpecRemoved           12                       # Number of squashed non-spec instructions that were removed
system.switch_cpus0.iq.iqSquashedOperandsExamined     75281345                       # Number of squashed operands that are examined and possibly removed from graph
system.switch_cpus0.iq.issued_per_cycle::samples     99942463                       # Number of insts issued each cycle
system.switch_cpus0.iq.issued_per_cycle::mean     4.838150                       # Number of insts issued each cycle
system.switch_cpus0.iq.issued_per_cycle::stdev     2.689425                       # Number of insts issued each cycle
system.switch_cpus0.iq.issued_per_cycle::underflows            0      0.00%      0.00% # Number of insts issued each cycle
system.switch_cpus0.iq.issued_per_cycle::0     13952183     13.96%     13.96% # Number of insts issued each cycle
system.switch_cpus0.iq.issued_per_cycle::1      2662462      2.66%     16.62% # Number of insts issued each cycle
system.switch_cpus0.iq.issued_per_cycle::2      5167160      5.17%     21.79% # Number of insts issued each cycle
system.switch_cpus0.iq.issued_per_cycle::3      6927549      6.93%     28.73% # Number of insts issued each cycle
system.switch_cpus0.iq.issued_per_cycle::4      9597419      9.60%     38.33% # Number of insts issued each cycle
system.switch_cpus0.iq.issued_per_cycle::5     12324841     12.33%     50.66% # Number of insts issued each cycle
system.switch_cpus0.iq.issued_per_cycle::6     15103106     15.11%     65.77% # Number of insts issued each cycle
system.switch_cpus0.iq.issued_per_cycle::7     14537242     14.55%     80.32% # Number of insts issued each cycle
system.switch_cpus0.iq.issued_per_cycle::8     19670501     19.68%    100.00% # Number of insts issued each cycle
system.switch_cpus0.iq.issued_per_cycle::overflows            0      0.00%    100.00% # Number of insts issued each cycle
system.switch_cpus0.iq.issued_per_cycle::min_value            0                       # Number of insts issued each cycle
system.switch_cpus0.iq.issued_per_cycle::max_value            8                       # Number of insts issued each cycle
system.switch_cpus0.iq.issued_per_cycle::total     99942463                       # Number of insts issued each cycle
system.switch_cpus0.iq.rate                  4.833259                       # Inst issue rate
system.switch_cpus0.iq.vec_alu_accesses             0                       # Number of vector alu accesses
system.switch_cpus0.iq.vec_inst_queue_reads            0                       # Number of vector instruction queue reads
system.switch_cpus0.iq.vec_inst_queue_wakeup_accesses            0                       # Number of vector instruction queue wakeup accesses
system.switch_cpus0.iq.vec_inst_queue_writes            0                       # Number of vector instruction queue writes
system.switch_cpus0.memDep0.conflictingLoads      5434574                       # Number of conflicting loads.
system.switch_cpus0.memDep0.conflictingStores      2514858                       # Number of conflicting stores.
system.switch_cpus0.memDep0.insertedLoads    102915745                       # Number of loads inserted to the mem dependence unit.
system.switch_cpus0.memDep0.insertedStores     45575699                       # Number of stores inserted to the mem dependence unit.
system.switch_cpus0.misc_regfile_reads      236712416                       # number of misc regfile reads
system.switch_cpus0.misc_regfile_writes             9                       # number of misc regfile writes
system.switch_cpus0.numCycles               100043598                       # number of cpu cycles simulated
system.switch_cpus0.numWorkItemsCompleted            0                       # number of work items this cpu completed
system.switch_cpus0.numWorkItemsStarted             0                       # number of work items this cpu started
system.switch_cpus0.timesIdled                    371                       # Number of times that the entire CPU went into an idle state and unscheduled itself
system.switch_cpus1.cc_regfile_reads         50163836                       # number of cc regfile reads
system.switch_cpus1.cc_regfile_writes        40356091                       # number of cc regfile writes
system.switch_cpus1.committedInsts           98673795                       # Number of Instructions Simulated
system.switch_cpus1.committedOps            157697549                       # Number of Ops (including micro ops) Simulated
system.switch_cpus1.cpi                      1.013882                       # CPI: Cycles Per Instruction
system.switch_cpus1.cpi_total                1.013882                       # CPI: Total CPI of All Threads
system.switch_cpus1.fp_regfile_reads        120803588                       # number of floating regfile reads
system.switch_cpus1.fp_regfile_writes        60714662                       # number of floating regfile writes
system.switch_cpus1.idleCycles                  41878                       # Total number of cycles that the CPU has spent unscheduled due to idling
system.switch_cpus1.iew.branchMispredicts         9238                       # Number of branch mispredicts detected at execute
system.switch_cpus1.iew.exec_branches        11187405                       # Number of branches executed
system.switch_cpus1.iew.exec_nop                    0                       # number of nop insts executed
system.switch_cpus1.iew.exec_rate            1.577575                       # Inst execution rate
system.switch_cpus1.iew.exec_refs            36441347                       # number of memory reference insts executed
system.switch_cpus1.iew.exec_stores          10402482                       # Number of stores executed
system.switch_cpus1.iew.exec_swp                    0                       # number of swp insts executed
system.switch_cpus1.iew.iewBlockCycles       20878438                       # Number of cycles IEW is blocking
system.switch_cpus1.iew.iewDispLoadInsts     26058292                       # Number of dispatched load instructions
system.switch_cpus1.iew.iewDispNonSpecInsts            3                       # Number of dispatched non-speculative instructions
system.switch_cpus1.iew.iewDispSquashedInsts          504                       # Number of squashed instructions skipped by dispatch
system.switch_cpus1.iew.iewDispStoreInsts     10420857                       # Number of dispatched store instructions
system.switch_cpus1.iew.iewDispatchedInsts    157954323                       # Number of instructions dispatched to IQ
system.switch_cpus1.iew.iewExecLoadInsts     26038865                       # Number of load instructions executed
system.switch_cpus1.iew.iewExecSquashedInsts        22394                       # Number of squashed instructions skipped in execute
system.switch_cpus1.iew.iewExecutedInsts    157826269                       # Number of executed instructions
system.switch_cpus1.iew.iewIQFullEvents         88479                       # Number of times the IQ has become full, causing a stall
system.switch_cpus1.iew.iewIdleCycles               0                       # Number of cycles IEW is idle
system.switch_cpus1.iew.iewLSQFullEvents     11146909                       # Number of times the LSQ has become full, causing a stall
system.switch_cpus1.iew.iewSquashCycles          9756                       # Number of cycles IEW is squashing
system.switch_cpus1.iew.iewUnblockCycles     11304116                       # Number of cycles IEW is unblocking
system.switch_cpus1.iew.memOrderViolationEvents          638                       # Number of memory order violations
system.switch_cpus1.iew.predictedNotTakenIncorrect         1784                       # Number of branches that were predicted not taken incorrectly
system.switch_cpus1.iew.predictedTakenIncorrect         7454                       # Number of branches that were predicted taken incorrectly
system.switch_cpus1.iew.wb_consumers        195616430                       # num instructions consuming a value
system.switch_cpus1.iew.wb_count            157801990                       # cumulative count of insts written-back
system.switch_cpus1.iew.wb_fanout            0.606984                       # average fanout of values written-back
system.switch_cpus1.iew.wb_producers        118735999                       # num instructions producing a value
system.switch_cpus1.iew.wb_rate              1.577332                       # insts written-back per cycle
system.switch_cpus1.iew.wb_sent             157813017                       # cumulative count of insts sent to commit
system.switch_cpus1.int_regfile_reads       154225887                       # number of integer regfile reads
system.switch_cpus1.int_regfile_writes       72996222                       # number of integer regfile writes
system.switch_cpus1.ipc                      0.986308                       # IPC: Instructions Per Cycle
system.switch_cpus1.ipc_total                0.986308                       # IPC: Total IPC of All Threads
system.switch_cpus1.iq.FU_type_0::No_OpClass         7638      0.00%      0.00% # Type of FU issued
system.switch_cpus1.iq.FU_type_0::IntAlu     85413746     54.11%     54.12% # Type of FU issued
system.switch_cpus1.iq.FU_type_0::IntMult         2908      0.00%     54.12% # Type of FU issued
system.switch_cpus1.iq.FU_type_0::IntDiv            0      0.00%     54.12% # Type of FU issued
system.switch_cpus1.iq.FU_type_0::FloatAdd      2949515      1.87%     55.99% # Type of FU issued
system.switch_cpus1.iq.FU_type_0::FloatCmp            0      0.00%     55.99% # Type of FU issued
system.switch_cpus1.iq.FU_type_0::FloatCvt            0      0.00%     55.99% # Type of FU issued
system.switch_cpus1.iq.FU_type_0::FloatMult            0      0.00%     55.99% # Type of FU issued
system.switch_cpus1.iq.FU_type_0::FloatMultAcc            0      0.00%     55.99% # Type of FU issued
system.switch_cpus1.iq.FU_type_0::FloatDiv            0      0.00%     55.99% # Type of FU issued
system.switch_cpus1.iq.FU_type_0::FloatMisc            0      0.00%     55.99% # Type of FU issued
system.switch_cpus1.iq.FU_type_0::FloatSqrt            0      0.00%     55.99% # Type of FU issued
system.switch_cpus1.iq.FU_type_0::SimdAdd            0      0.00%     55.99% # Type of FU issued
system.switch_cpus1.iq.FU_type_0::SimdAddAcc            0      0.00%     55.99% # Type of FU issued
system.switch_cpus1.iq.FU_type_0::SimdAlu      3421556      2.17%     58.15% # Type of FU issued
system.switch_cpus1.iq.FU_type_0::SimdCmp            0      0.00%     58.15% # Type of FU issued
system.switch_cpus1.iq.FU_type_0::SimdCvt            0      0.00%     58.15% # Type of FU issued
system.switch_cpus1.iq.FU_type_0::SimdMisc      1771823      1.12%     59.28% # Type of FU issued
system.switch_cpus1.iq.FU_type_0::SimdMult            0      0.00%     59.28% # Type of FU issued
system.switch_cpus1.iq.FU_type_0::SimdMultAcc            0      0.00%     59.28% # Type of FU issued
system.switch_cpus1.iq.FU_type_0::SimdShift            0      0.00%     59.28% # Type of FU issued
system.switch_cpus1.iq.FU_type_0::SimdShiftAcc            0      0.00%     59.28% # Type of FU issued
system.switch_cpus1.iq.FU_type_0::SimdDiv            0      0.00%     59.28% # Type of FU issued
system.switch_cpus1.iq.FU_type_0::SimdSqrt            0      0.00%     59.28% # Type of FU issued
system.switch_cpus1.iq.FU_type_0::SimdFloatAdd     11186368      7.09%     66.36% # Type of FU issued
system.switch_cpus1.iq.FU_type_0::SimdFloatAlu            0      0.00%     66.36% # Type of FU issued
system.switch_cpus1.iq.FU_type_0::SimdFloatCmp       376832      0.24%     66.60% # Type of FU issued
system.switch_cpus1.iq.FU_type_0::SimdFloatCvt      2506754      1.59%     68.19% # Type of FU issued
system.switch_cpus1.iq.FU_type_0::SimdFloatDiv      2407415      1.53%     69.72% # Type of FU issued
system.switch_cpus1.iq.FU_type_0::SimdFloatMisc            0      0.00%     69.72% # Type of FU issued
system.switch_cpus1.iq.FU_type_0::SimdFloatMult     10941395      6.93%     76.65% # Type of FU issued
system.switch_cpus1.iq.FU_type_0::SimdFloatMultAcc            0      0.00%     76.65% # Type of FU issued
system.switch_cpus1.iq.FU_type_0::SimdFloatSqrt       409602      0.26%     76.91% # Type of FU issued
system.switch_cpus1.iq.FU_type_0::SimdReduceAdd            0      0.00%     76.91% # Type of FU issued
system.switch_cpus1.iq.FU_type_0::SimdReduceAlu            0      0.00%     76.91% # Type of FU issued
system.switch_cpus1.iq.FU_type_0::SimdReduceCmp            0      0.00%     76.91% # Type of FU issued
system.switch_cpus1.iq.FU_type_0::SimdFloatReduceAdd            0      0.00%     76.91% # Type of FU issued
system.switch_cpus1.iq.FU_type_0::SimdFloatReduceCmp            0      0.00%     76.91% # Type of FU issued
[...]
system.switch_cpus3.commit.numCommittedDist::0     17687932     18.85%     18.85% # Number of insts commited each cycle
system.switch_cpus3.commit.numCommittedDist::1      8935360      9.52%     28.37% # Number of insts commited each cycle
system.switch_cpus3.commit.numCommittedDist::2     12689887     13.52%     41.90% # Number of insts commited each cycle
system.switch_cpus3.commit.numCommittedDist::3      5799130      6.18%     48.08% # Number of insts commited each cycle
system.switch_cpus3.commit.numCommittedDist::4      9781249     10.42%     58.50% # Number of insts commited each cycle
system.switch_cpus3.commit.numCommittedDist::5      3706828      3.95%     62.45% # Number of insts commited each cycle
system.switch_cpus3.commit.numCommittedDist::6      1859685      1.98%     64.43% # Number of insts commited each cycle
system.switch_cpus3.commit.numCommittedDist::7       687326      0.73%     65.16% # Number of insts commited each cycle
system.switch_cpus3.commit.numCommittedDist::8     32688376     34.84%    100.00% # Number of insts commited each cycle
system.switch_cpus3.commit.numCommittedDist::overflows            0      0.00%    100.00% # Number of insts commited each cycle
system.switch_cpus3.commit.numCommittedDist::min_value            0                       # Number of insts commited each cycle
system.switch_cpus3.commit.numCommittedDist::max_value            8                       # Number of insts commited each cycle
system.switch_cpus3.commit.numCommittedDist::total     93835773                       # Number of insts commited each cycle
system.switch_cpus3.commit.instsCommitted    207269268                       # Number of instructions committed
system.switch_cpus3.commit.opsCommitted     386848060                       # Number of ops (including micro ops) committed
system.switch_cpus3.commit.memRefs           62532555                       # Number of memory references committed
system.switch_cpus3.commit.loads             53408872                       # Number of loads committed
system.switch_cpus3.commit.amos                     0                       # Number of atomic instructions committed
system.switch_cpus3.commit.membars                  0                       # Number of memory barriers committed
system.switch_cpus3.commit.branches          31453162                       # Number of branches committed
system.switch_cpus3.commit.vector                   0                       # Number of committed Vector instructions.
system.switch_cpus3.commit.floating          10111533                       # Number of committed floating point instructions.
system.switch_cpus3.commit.integer          380457189                       # Number of committed integer instructions.
system.switch_cpus3.commit.functionCalls       316134                       # Number of function calls committed.
system.switch_cpus3.commit.committedInstType_0::No_OpClass      1669439      0.43%      0.43% # Class of committed instruction
system.switch_cpus3.commit.committedInstType_0::IntAlu    301115072     77.84%     78.27% # Class of committed instruction
system.switch_cpus3.commit.committedInstType_0::IntMult     18123749      4.68%     82.95% # Class of committed instruction
system.switch_cpus3.commit.committedInstType_0::IntDiv        31808      0.01%     82.96% # Class of committed instruction
system.switch_cpus3.commit.committedInstType_0::FloatAdd       404438      0.10%     83.07% # Class of committed instruction
system.switch_cpus3.commit.committedInstType_0::FloatCmp            0      0.00%     83.07% # Class of committed instruction
system.switch_cpus3.commit.committedInstType_0::FloatCvt            0      0.00%     83.07% # Class of committed instruction
system.switch_cpus3.commit.committedInstType_0::FloatMult            0      0.00%     83.07% # Class of committed instruction
system.switch_cpus3.commit.committedInstType_0::FloatMultAcc            0      0.00%     83.07% # Class of committed instruction
system.switch_cpus3.commit.committedInstType_0::FloatDiv            0      0.00%     83.07% # Class of committed instruction
system.switch_cpus3.commit.committedInstType_0::FloatMisc            0      0.00%     83.07% # Class of committed instruction
system.switch_cpus3.commit.committedInstType_0::FloatSqrt            0      0.00%     83.07% # Class of committed instruction
system.switch_cpus3.commit.committedInstType_0::SimdAdd            0      0.00%     83.07% # Class of committed instruction
system.switch_cpus3.commit.committedInstType_0::SimdAddAcc            0      0.00%     83.07% # Class of committed instruction
system.switch_cpus3.commit.committedInstType_0::SimdAlu       386336      0.10%     83.17% # Class of committed instruction
system.switch_cpus3.commit.committedInstType_0::SimdCmp            0      0.00%     83.17% # Class of committed instruction
system.switch_cpus3.commit.committedInstType_0::SimdCvt            0      0.00%     83.17% # Class of committed instruction
system.switch_cpus3.commit.committedInstType_0::SimdMisc       583665      0.15%     83.32% # Class of committed instruction
system.switch_cpus3.commit.committedInstType_0::SimdMult            0      0.00%     83.32% # Class of committed instruction
system.switch_cpus3.commit.committedInstType_0::SimdMultAcc            0      0.00%     83.32% # Class of committed instruction
system.switch_cpus3.commit.committedInstType_0::SimdShift            0      0.00%     83.32% # Class of committed instruction
system.switch_cpus3.commit.committedInstType_0::SimdShiftAcc            0      0.00%     83.32% # Class of committed instruction
system.switch_cpus3.commit.committedInstType_0::SimdDiv            0      0.00%     83.32% # Class of committed instruction
system.switch_cpus3.commit.committedInstType_0::SimdSqrt            0      0.00%     83.32% # Class of committed instruction
system.switch_cpus3.commit.committedInstType_0::SimdFloatAdd       697443      0.18%     83.50% # Class of committed instruction
system.switch_cpus3.commit.committedInstType_0::SimdFloatAlu            0      0.00%     83.50% # Class of committed instruction
system.switch_cpus3.commit.committedInstType_0::SimdFloatCmp            0      0.00%     83.50% # Class of committed instruction
system.switch_cpus3.commit.committedInstType_0::SimdFloatCvt       370705      0.10%     83.59% # Class of committed instruction
system.switch_cpus3.commit.committedInstType_0::SimdFloatDiv       176521      0.05%     83.64% # Class of committed instruction
system.switch_cpus3.commit.committedInstType_0::SimdFloatMisc            0      0.00%     83.64% # Class of committed instruction
system.switch_cpus3.commit.committedInstType_0::SimdFloatMult       755881      0.20%     83.84% # Class of committed instruction
system.switch_cpus3.commit.committedInstType_0::SimdFloatMultAcc            0      0.00%     83.84% # Class of committed instruction
system.switch_cpus3.commit.committedInstType_0::SimdFloatSqrt          448      0.00%     83.84% # Class of committed instruction
system.switch_cpus3.commit.committedInstType_0::SimdReduceAdd            0      0.00%     83.84% # Class of committed instruction
system.switch_cpus3.commit.committedInstType_0::SimdReduceAlu            0      0.00%     83.84% # Class of committed instruction
system.switch_cpus3.commit.committedInstType_0::SimdReduceCmp            0      0.00%     83.84% # Class of committed instruction
system.switch_cpus3.commit.committedInstType_0::SimdFloatReduceAdd            0      0.00%     83.84% # Class of committed instruction
system.switch_cpus3.commit.committedInstType_0::SimdFloatReduceCmp            0      0.00%     83.84% # Class of committed instruction
system.switch_cpus3.commit.committedInstType_0::SimdAes            0      0.00%     83.84% # Class of committed instruction
system.switch_cpus3.commit.committedInstType_0::SimdAesMix            0      0.00%     83.84% # Class of committed instruction
system.switch_cpus3.commit.committedInstType_0::SimdSha1Hash            0      0.00%     83.84% # Class of committed instruction
system.switch_cpus3.commit.committedInstType_0::SimdSha1Hash2            0      0.00%     83.84% # Class of committed instruction
system.switch_cpus3.commit.committedInstType_0::SimdSha256Hash            0      0.00%     83.84% # Class of committed instruction
system.switch_cpus3.commit.committedInstType_0::SimdSha256Hash2            0      0.00%     83.84% # Class of committed instruction
system.switch_cpus3.commit.committedInstType_0::SimdShaSigma2            0      0.00%     83.84% # Class of committed instruction
system.switch_cpus3.commit.committedInstType_0::SimdShaSigma3            0      0.00%     83.84% # Class of committed instruction
system.switch_cpus3.commit.committedInstType_0::SimdPredAlu            0      0.00%     83.84% # Class of committed instruction
system.switch_cpus3.commit.committedInstType_0::MemRead     50878035     13.15%     96.99% # Class of committed instruction
system.switch_cpus3.commit.committedInstType_0::MemWrite      5855305      1.51%     98.50% # Class of committed instruction
system.switch_cpus3.commit.committedInstType_0::FloatMemRead      2530837      0.65%     99.16% # Class of committed instruction
system.switch_cpus3.commit.committedInstType_0::FloatMemWrite      3268378      0.84%    100.00% # Class of committed instruction
system.switch_cpus3.commit.committedInstType_0::IprAccess            0      0.00%    100.00% # Class of committed instruction
system.switch_cpus3.commit.committedInstType_0::InstPrefetch            0      0.00%    100.00% # Class of committed instruction
system.switch_cpus3.commit.committedInstType_0::total    386848060                       # Class of committed instruction
system.switch_cpus3.commit.commitEligibleSamples     32688376                       # number cycles where commit BW limit reached
system.switch_cpus3.decode.idleCycles         5971164                       # Number of cycles decode is idle
system.switch_cpus3.decode.blockedCycles     18145081                       # Number of cycles decode is blocked
system.switch_cpus3.decode.runCycles         68370997                       # Number of cycles decode is running
system.switch_cpus3.decode.unblockCycles      5849665                       # Number of cycles decode is unblocking
system.switch_cpus3.decode.squashCycles       1655445                       # Number of cycles decode is squashing
system.switch_cpus3.decode.branchResolved     26251264                       # Number of times decode resolved a  branch
system.switch_cpus3.decode.branchMispred        88011                       # Number of times decode detected a branch misprediction
system.switch_cpus3.decode.decodedInsts     458710041                       # Number of instructions handled by decode
system.switch_cpus3.decode.squashedInsts       555738                       # Number of squashed instructions handled by decode
system.switch_cpus3.dtb.rdAccesses           57252552                       # TLB accesses on read requests
system.switch_cpus3.dtb.wrAccesses            9512102                       # TLB accesses on write requests
system.switch_cpus3.dtb.rdMisses                  137                       # TLB misses on read requests
system.switch_cpus3.dtb.wrMisses                  442                       # TLB misses on write requests
system.switch_cpus3.dtb.walker.power_state.pwrStateResidencyTicks::UNDEFINED 15684571605789                       # Cumulative time (in ticks) in various power states
system.switch_cpus3.fetch.icacheStallCycles      1211134                       # Number of cycles fetch is stalled on an Icache miss
system.switch_cpus3.fetch.insts             257673720                       # Number of instructions fetch has processed
system.switch_cpus3.fetch.branches           39509697                       # Number of branches that fetch encountered
system.switch_cpus3.fetch.predictedBranches     27983927                       # Number of branches that fetch has predicted taken
system.switch_cpus3.fetch.cycles             97040531                       # Number of cycles fetch has run and was not squashing or blocked
system.switch_cpus3.fetch.squashCycles        3481334                       # Number of cycles fetch has spent squashing
system.switch_cpus3.fetch.miscStallCycles            2                       # Number of cycles fetch has spent waiting on interrupts,or bad addresses, or out of MSHRs
system.switch_cpus3.fetch.pendingTrapStallCycles           21                       # Number of stall cycles due to pending traps
system.switch_cpus3.fetch.cacheLines         39570862                       # Number of cache lines fetched
system.switch_cpus3.fetch.icacheSquashes          159                       # Number of outstanding Icache misses that were squashed
system.switch_cpus3.fetch.nisnDist::samples     99992355                       # Number of instructions fetched each cycle (Total)
system.switch_cpus3.fetch.nisnDist::mean     4.778754                       # Number of instructions fetched each cycle (Total)
system.switch_cpus3.fetch.nisnDist::stdev     3.087791                       # Number of instructions fetched each cycle (Total)
system.switch_cpus3.fetch.nisnDist::underflows            0      0.00%      0.00% # Number of instructions fetched each cycle (Total)
system.switch_cpus3.fetch.nisnDist::0        16108372     16.11%     16.11% # Number of instructions fetched each cycle (Total)
system.switch_cpus3.fetch.nisnDist::1         1636246      1.64%     17.75% # Number of instructions fetched each cycle (Total)
system.switch_cpus3.fetch.nisnDist::2        15768021     15.77%     33.52% # Number of instructions fetched each cycle (Total)
system.switch_cpus3.fetch.nisnDist::3         1770604      1.77%     35.29% # Number of instructions fetched each cycle (Total)
system.switch_cpus3.fetch.nisnDist::4        12368767     12.37%     47.66% # Number of instructions fetched each cycle (Total)
system.switch_cpus3.fetch.nisnDist::5         6334612      6.34%     53.99% # Number of instructions fetched each cycle (Total)
system.switch_cpus3.fetch.nisnDist::6         1579519      1.58%     55.57% # Number of instructions fetched each cycle (Total)
system.switch_cpus3.fetch.nisnDist::7         6680184      6.68%     62.25% # Number of instructions fetched each cycle (Total)
system.switch_cpus3.fetch.nisnDist::8        37746030     37.75%    100.00% # Number of instructions fetched each cycle (Total)
system.switch_cpus3.fetch.nisnDist::overflows            0      0.00%    100.00% # Number of instructions fetched each cycle (Total)
system.switch_cpus3.fetch.nisnDist::min_value            0                       # Number of instructions fetched each cycle (Total)
system.switch_cpus3.fetch.nisnDist::max_value            8                       # Number of instructions fetched each cycle (Total)
system.switch_cpus3.fetch.nisnDist::total     99992355                       # Number of instructions fetched each cycle (Total)
system.switch_cpus3.fetch.branchRate         0.394925                       # Number of branch fetches per cycle
system.switch_cpus3.fetch.rate               2.575614                       # Number of inst fetches per cycle
system.switch_cpus3.itb.rdAccesses                  0                       # TLB accesses on read requests
system.switch_cpus3.itb.wrAccesses           39570865                       # TLB accesses on write requests
system.switch_cpus3.itb.rdMisses                    0                       # TLB misses on read requests
system.switch_cpus3.itb.wrMisses                   17                       # TLB misses on write requests
system.switch_cpus3.itb.walker.power_state.pwrStateResidencyTicks::UNDEFINED 15684571605789                       # Cumulative time (in ticks) in various power states
system.switch_cpus3.lsq0.forwLoads             784201                       # Number of loads that had data forwarded from stores
system.switch_cpus3.lsq0.squashedLoads        5424244                       # Number of loads squashed
system.switch_cpus3.lsq0.ignoredResponses         1020                       # Number of memory responses ignored because the instruction is squashed
system.switch_cpus3.lsq0.memOrderViolation        17813                       # Number of memory ordering violations
system.switch_cpus3.lsq0.squashedStores       1433437                       # Number of stores squashed
system.switch_cpus3.lsq0.rescheduledLoads            1                       # Number of loads that were rescheduled
system.switch_cpus3.lsq0.blockedByCache             0                       # Number of times an access to memory failed due to the cache being blocked
system.switch_cpus3.power_state.pwrStateResidencyTicks::OFF  33314528457                       # Cumulative time (in ticks) in various power states
system.switch_cpus3.rename.squashCycles       1655445                       # Number of cycles rename is squashing
system.switch_cpus3.rename.idleCycles         8800257                       # Number of cycles rename is idle
system.switch_cpus3.rename.blockCycles        7887463                       # Number of cycles rename is blocking
system.switch_cpus3.rename.serializeStallCycles            0                       # count of cycles rename stalledfor serializing inst
system.switch_cpus3.rename.runCycles         70832630                       # Number of cycles rename is running
system.switch_cpus3.rename.unblockCycles     10816557                       # Number of cycles rename is unblocking
system.switch_cpus3.rename.renamedInsts     447166125                       # Number of instructions processed by rename
system.switch_cpus3.rename.ROBFullEvents       184637                       # Number of times rename has blocked due to ROB full
system.switch_cpus3.rename.IQFullEvents       2009903                       # Number of times rename has blocked due to IQ full
system.switch_cpus3.rename.LQFullEvents        581627                       # Number of times rename has blocked due to LQ full
system.switch_cpus3.rename.SQFullEvents       6490632                       # Number of times rename has blocked due to SQ full
system.switch_cpus3.rename.renamedOperands    678800768                       # Number of destination operands rename has renamed
system.switch_cpus3.rename.lookups          980324213                       # Number of register rename lookups that rename has made
system.switch_cpus3.rename.intLookups       641885662                       # Number of integer rename lookups
system.switch_cpus3.rename.fpLookups         13641539                       # Number of floating rename lookups
system.switch_cpus3.rename.committedMaps    590340547                       # Number of HB maps that are committed
system.switch_cpus3.rename.undoneMaps        88459979                       # Number of HB maps that are undone due to squashing
system.switch_cpus3.rename.serializing              0                       # count of serializing insts renamed
system.switch_cpus3.rename.tempSerializing            0                       # count of temporary serializing insts renamed
system.switch_cpus3.rename.skidInsts         16033336                       # count of insts added to the skid buffer
system.switch_cpus3.rob.reads               489679482                       # The number of ROB reads
system.switch_cpus3.rob.writes              863236965                       # The number of ROB writes
system.switch_cpus3.thread0.numInsts        207269268                       # Number of Instructions committed
system.switch_cpus3.thread0.numOps          386848060                       # Number of Ops committed
system.switch_cpus3.thread0.numMemRefs              0                       # Number of Memory References
system.voltage_domain.voltage                       1                       # Voltage in Volts

---------- End Simulation Statistics   ----------
