
---------- Begin Simulation Statistics ----------
final_tick                               18204165928350                       # Number of ticks from beginning of simulation (restored from checkpoints and never reset)
host_inst_rate                                 144155                       # Simulator instruction rate (inst/s)
host_mem_usage                               17498828                       # Number of bytes of host memory used
host_op_rate                                   263195                       # Simulator op (including micro ops) rate (op/s)
host_seconds                                  6934.04                       # Real time elapsed on the host
host_tick_rate                                8343118                       # Simulator tick rate (ticks/s)
sim_freq                                 1000000000000                       # Frequency of simulated ticks
sim_insts                                   999577723                       # Number of instructions simulated
sim_ops                                    1825003491                       # Number of ops (including micro ops) simulated
sim_seconds                                  0.057852                       # Number of seconds simulated
sim_ticks                                 57851551206                       # Number of ticks simulated
system.cpu0.Branches                                1                       # Number of branches fetched
system.cpu0.committedInsts                         15                       # Number of instructions committed
system.cpu0.committedOps                           26                       # Number of ops (including micro ops) committed
system.cpu0.idle_fraction                           0                       # Percentage of idle cycles
system.cpu0.l2bus.snoop_filter.hit_multi_requests          256                       # Number of requests hitting in the snoop filter with multiple (>1) holders of the requested data.
system.cpu0.l2bus.snoop_filter.hit_multi_snoops            0                       # Number of snoops hitting in the snoop filter with multiple (>1) holders of the requested data.
system.cpu0.l2bus.snoop_filter.hit_single_requests      1776456                       # Number of requests hitting in the snoop filter with a single holder of the requested data.
system.cpu0.l2bus.snoop_filter.hit_single_snoops        24508                       # Number of snoops hitting in the snoop filter with a single holder of the requested data.
system.cpu0.l2bus.snoop_filter.tot_requests      3441673                       # Total number of requests made to the snoop filter.
system.cpu0.l2bus.snoop_filter.tot_snoops        24508                       # Total number of snoops made to the snoop filter.
system.cpu0.mmucache.mmubus.snoop_filter.hit_multi_requests            0                       # Number of requests hitting in the snoop filter with multiple (>1) holders of the requested data.
system.cpu0.mmucache.mmubus.snoop_filter.hit_multi_snoops            0                       # Number of snoops hitting in the snoop filter with multiple (>1) holders of the requested data.
system.cpu0.mmucache.mmubus.snoop_filter.hit_single_requests            0                       # Number of requests hitting in the snoop filter with a single holder of the requested data.
system.cpu0.mmucache.mmubus.snoop_filter.hit_single_snoops            0                       # Number of snoops hitting in the snoop filter with a single holder of the requested data.
system.cpu0.mmucache.mmubus.snoop_filter.tot_requests            0                       # Total number of requests made to the snoop filter.
system.cpu0.mmucache.mmubus.snoop_filter.tot_snoops            0                       # Total number of snoops made to the snoop filter.
system.cpu0.not_idle_fraction                       1                       # Percentage of non-idle cycles
system.cpu0.numCycles                              31                       # number of cpu cycles simulated
system.cpu0.numWorkItemsCompleted                   0                       # number of work items this cpu completed
system.cpu0.numWorkItemsStarted                     0                       # number of work items this cpu started
system.cpu0.num_busy_cycles                        31                       # Number of busy cycles
system.cpu0.num_cc_register_reads                   9                       # number of times the CC registers were read
system.cpu0.num_cc_register_writes                  6                       # number of times the CC registers were written
system.cpu0.num_conditional_control_insts            1                       # number of instructions that are conditional controls
system.cpu0.num_fp_alu_accesses                    19                       # Number of float alu accesses
system.cpu0.num_fp_insts                           19                       # number of float instructions
system.cpu0.num_fp_register_reads                  25                       # number of times the floating registers were read
system.cpu0.num_fp_register_writes                 17                       # number of times the floating registers were written
system.cpu0.num_func_calls                          0                       # number of times a function call or return occured
system.cpu0.num_idle_cycles                         0                       # Number of idle cycles
system.cpu0.num_int_alu_accesses                   13                       # Number of integer alu accesses
system.cpu0.num_int_insts                          13                       # number of integer instructions
system.cpu0.num_int_register_reads                 29                       # number of times the integer registers were read
system.cpu0.num_int_register_writes                 6                       # number of times the integer registers were written
system.cpu0.num_load_insts                          5                       # Number of load instructions
system.cpu0.num_mem_refs                            6                       # number of memory refs
system.cpu0.num_store_insts                         1                       # Number of store instructions
system.cpu0.num_vec_alu_accesses                    0                       # Number of vector alu accesses
system.cpu0.num_vec_insts                           0                       # number of vector instructions
system.cpu0.num_vec_register_reads                  0                       # number of times the vector registers were read
system.cpu0.num_vec_register_writes                 0                       # number of times the vector registers were written
system.cpu0.op_class::No_OpClass                    0      0.00%      0.00% # Class of executed instruction
system.cpu0.op_class::IntAlu                        7     26.92%     26.92% # Class of executed instruction
system.cpu0.op_class::IntMult                       0      0.00%     26.92% # Class of executed instruction
system.cpu0.op_class::IntDiv                        0      0.00%     26.92% # Class of executed instruction
system.cpu0.op_class::FloatAdd                      4     15.38%     42.31% # Class of executed instruction
system.cpu0.op_class::FloatCmp                      0      0.00%     42.31% # Class of executed instruction
system.cpu0.op_class::FloatCvt                      0      0.00%     42.31% # Class of executed instruction
system.cpu0.op_class::FloatMult                     0      0.00%     42.31% # Class of executed instruction
system.cpu0.op_class::FloatMultAcc                  0      0.00%     42.31% # Class of executed instruction
system.cpu0.op_class::FloatDiv                      0      0.00%     42.31% # Class of executed instruction
system.cpu0.op_class::FloatMisc                     0      0.00%     42.31% # Class of executed instruction
system.cpu0.op_class::FloatSqrt                     0      0.00%     42.31% # Class of executed instruction
system.cpu0.op_class::SimdAdd                       0      0.00%     42.31% # Class of executed instruction
system.cpu0.op_class::SimdAddAcc                    0      0.00%     42.31% # Class of executed instruction
system.cpu0.op_class::SimdAlu                       2      7.69%     50.00% # Class of executed instruction
system.cpu0.op_class::SimdCmp                       0      0.00%     50.00% # Class of executed instruction
system.cpu0.op_class::SimdCvt                       0      0.00%     50.00% # Class of executed instruction
system.cpu0.op_class::SimdMisc                      0      0.00%     50.00% # Class of executed instruction
system.cpu0.op_class::SimdMult                      0      0.00%     50.00% # Class of executed instruction
system.cpu0.op_class::SimdMultAcc                   0      0.00%     50.00% # Class of executed instruction
system.cpu0.op_class::SimdShift                     0      0.00%     50.00% # Class of executed instruction
system.cpu0.op_class::SimdShiftAcc                  0      0.00%     50.00% # Class of executed instruction
system.cpu0.op_class::SimdDiv                       0      0.00%     50.00% # Class of executed instruction
system.cpu0.op_class::SimdSqrt                      0      0.00%     50.00% # Class of executed instruction
system.cpu0.op_class::SimdFloatAdd                  3     11.54%     61.54% # Class of executed instruction
system.cpu0.op_class::SimdFloatAlu                  0      0.00%     61.54% # Class of executed instruction
system.cpu0.op_class::SimdFloatCmp                  0      0.00%     61.54% # Class of executed instruction
system.cpu0.op_class::SimdFloatCvt                  1      3.85%     65.38% # Class of executed instruction
system.cpu0.op_class::SimdFloatDiv                  1      3.85%     69.23% # Class of executed instruction
system.cpu0.op_class::SimdFloatMisc                 0      0.00%     69.23% # Class of executed instruction
system.cpu0.op_class::SimdFloatMult                 2      7.69%     76.92% # Class of executed instruction
system.cpu0.op_class::SimdFloatMultAcc              0      0.00%     76.92% # Class of executed instruction
system.cpu0.op_class::SimdFloatSqrt                 0      0.00%     76.92% # Class of executed instruction
system.cpu0.op_class::SimdReduceAdd                 0      0.00%     76.92% # Class of executed instruction
system.cpu0.op_class::SimdReduceAlu                 0      0.00%     76.92% # Class of executed instruction
system.cpu0.op_class::SimdReduceCmp                 0      0.00%     76.92% # Class of executed instruction
system.cpu0.op_class::SimdFloatReduceAdd            0      0.00%     76.92% # Class of executed instruction
system.cpu0.op_class::SimdFloatReduceCmp            0      0.00%     76.92% # Class of executed instruction
system.cpu0.op_class::SimdAes                       0      0.00%     76.92% # Class of executed instruction
system.cpu0.op_class::SimdAesMix                    0      0.00%     76.92% # Class of executed instruction
system.cpu0.op_class::SimdSha1Hash                  0      0.00%     76.92% # Class of executed instruction
system.cpu0.op_class::SimdSha1Hash2                 0      0.00%     76.92% # Class of executed instruction
system.cpu0.op_class::SimdSha256Hash                0      0.00%     76.92% # Class of executed instruction
system.cpu0.op_class::SimdSha256Hash2               0      0.00%     76.92% # Class of executed instruction
system.cpu0.op_class::SimdShaSigma2                 0      0.00%     76.92% # Class of executed instruction
system.cpu0.op_class::SimdShaSigma3                 0      0.00%     76.92% # Class of executed instruction
system.cpu0.op_class::SimdPredAlu                   0      0.00%     76.92% # Class of executed instruction
system.cpu0.op_class::MemRead                       0      0.00%     76.92% # Class of executed instruction
system.cpu0.op_class::MemWrite                      0      0.00%     76.92% # Class of executed instruction
system.cpu0.op_class::FloatMemRead                  5     19.23%     96.15% # Class of executed instruction
system.cpu0.op_class::FloatMemWrite                 1      3.85%    100.00% # Class of executed instruction
system.cpu0.op_class::IprAccess                     0      0.00%    100.00% # Class of executed instruction
system.cpu0.op_class::InstPrefetch                  0      0.00%    100.00% # Class of executed instruction
system.cpu0.op_class::total                        26                       # Class of executed instruction
system.cpu0.workload.numSyscalls                    0                       # Number of system calls
system.cpu1.Branches                                1                       # Number of branches fetched
system.cpu1.committedInsts                         15                       # Number of instructions committed
system.cpu1.committedOps                           26                       # Number of ops (including micro ops) committed
system.cpu1.idle_fraction                           0                       # Percentage of idle cycles
system.cpu1.l2bus.snoop_filter.hit_multi_requests          421                       # Number of requests hitting in the snoop filter with multiple (>1) holders of the requested data.
system.cpu1.l2bus.snoop_filter.hit_multi_snoops            0                       # Number of snoops hitting in the snoop filter with multiple (>1) holders of the requested data.
system.cpu1.l2bus.snoop_filter.hit_single_requests      1772277                       # Number of requests hitting in the snoop filter with a single holder of the requested data.
system.cpu1.l2bus.snoop_filter.hit_single_snoops        24581                       # Number of snoops hitting in the snoop filter with a single holder of the requested data.
system.cpu1.l2bus.snoop_filter.tot_requests      3434071                       # Total number of requests made to the snoop filter.
system.cpu1.l2bus.snoop_filter.tot_snoops        24581                       # Total number of snoops made to the snoop filter.
system.cpu1.mmucache.mmubus.snoop_filter.hit_multi_requests            0                       # Number of requests hitting in the snoop filter with multiple (>1) holders of the requested data.
system.cpu1.mmucache.mmubus.snoop_filter.hit_multi_snoops            0                       # Number of snoops hitting in the snoop filter with multiple (>1) holders of the requested data.
system.cpu1.mmucache.mmubus.snoop_filter.hit_single_requests            0                       # Number of requests hitting in the snoop filter with a single holder of the requested data.
system.cpu1.mmucache.mmubus.snoop_filter.hit_single_snoops            0                       # Number of snoops hitting in the snoop filter with a single holder of the requested data.
system.cpu1.mmucache.mmubus.snoop_filter.tot_requests            0                       # Total number of requests made to the snoop filter.
system.cpu1.mmucache.mmubus.snoop_filter.tot_snoops            0                       # Total number of snoops made to the snoop filter.
system.cpu1.not_idle_fraction                       1                       # Percentage of non-idle cycles
system.cpu1.numCycles                              31                       # number of cpu cycles simulated
system.cpu1.numWorkItemsCompleted                   0                       # number of work items this cpu completed
system.cpu1.numWorkItemsStarted                     0                       # number of work items this cpu started
system.cpu1.num_busy_cycles                        31                       # Number of busy cycles
system.cpu1.num_cc_register_reads                   9                       # number of times the CC registers were read
system.cpu1.num_cc_register_writes                  6                       # number of times the CC registers were written
system.cpu1.num_conditional_control_insts            1                       # number of instructions that are conditional controls
system.cpu1.num_fp_alu_accesses                    19                       # Number of float alu accesses
system.cpu1.num_fp_insts                           19                       # number of float instructions
system.cpu1.num_fp_register_reads                  25                       # number of times the floating registers were read
system.cpu1.num_fp_register_writes                 17                       # number of times the floating registers were written
system.cpu1.num_func_calls                          0                       # number of times a function call or return occured
system.cpu1.num_idle_cycles                         0                       # Number of idle cycles
system.cpu1.num_int_alu_accesses                   13                       # Number of integer alu accesses
system.cpu1.num_int_insts                          13                       # number of integer instructions
system.cpu1.num_int_register_reads                 29                       # number of times the integer registers were read
system.cpu1.num_int_register_writes                 6                       # number of times the integer registers were written
system.cpu1.num_load_insts                          5                       # Number of load instructions
system.cpu1.num_mem_refs                            6                       # number of memory refs
system.cpu1.num_store_insts                         1                       # Number of store instructions
system.cpu1.num_vec_alu_accesses                    0                       # Number of vector alu accesses
system.cpu1.num_vec_insts                           0                       # number of vector instructions
system.cpu1.num_vec_register_reads                  0                       # number of times the vector registers were read
system.cpu1.num_vec_register_writes                 0                       # number of times the vector registers were written
system.cpu1.op_class::No_OpClass                    0      0.00%      0.00% # Class of executed instruction
system.cpu1.op_class::IntAlu                        7     26.92%     26.92% # Class of executed instruction
system.cpu1.op_class::IntMult                       0      0.00%     26.92% # Class of executed instruction
system.cpu1.op_class::IntDiv                        0      0.00%     26.92% # Class of executed instruction
system.cpu1.op_class::FloatAdd                      4     15.38%     42.31% # Class of executed instruction
system.cpu1.op_class::FloatCmp                      0      0.00%     42.31% # Class of executed instruction
system.cpu1.op_class::FloatCvt                      0      0.00%     42.31% # Class of executed instruction
system.cpu1.op_class::FloatMult                     0      0.00%     42.31% # Class of executed instruction
system.cpu1.op_class::FloatMultAcc                  0      0.00%     42.31% # Class of executed instruction
system.cpu1.op_class::FloatDiv                      0      0.00%     42.31% # Class of executed instruction
system.cpu1.op_class::FloatMisc                     0      0.00%     42.31% # Class of executed instruction
system.cpu1.op_class::FloatSqrt                     0      0.00%     42.31% # Class of executed instruction
system.cpu1.op_class::SimdAdd                       0      0.00%     42.31% # Class of executed instruction
system.cpu1.op_class::SimdAddAcc                    0      0.00%     42.31% # Class of executed instruction
system.cpu1.op_class::SimdAlu                       2      7.69%     50.00% # Class of executed instruction
system.cpu1.op_class::SimdCmp                       0      0.00%     50.00% # Class of executed instruction
system.cpu1.op_class::SimdCvt                       0      0.00%     50.00% # Class of executed instruction
system.cpu1.op_class::SimdMisc                      0      0.00%     50.00% # Class of executed instruction
system.cpu1.op_class::SimdMult                      0      0.00%     50.00% # Class of executed instruction
system.cpu1.op_class::SimdMultAcc                   0      0.00%     50.00% # Class of executed instruction
system.cpu1.op_class::SimdShift                     0      0.00%     50.00% # Class of executed instruction
system.cpu1.op_class::SimdShiftAcc                  0      0.00%     50.00% # Class of executed instruction
system.cpu1.op_class::SimdDiv                       0      0.00%     50.00% # Class of executed instruction
system.cpu1.op_class::SimdSqrt                      0      0.00%     50.00% # Class of executed instruction
system.cpu1.op_class::SimdFloatAdd                  3     11.54%     61.54% # Class of executed instruction
system.cpu1.op_class::SimdFloatAlu                  0      0.00%     61.54% # Class of executed instruction
system.cpu1.op_class::SimdFloatCmp                  0      0.00%     61.54% # Class of executed instruction
system.cpu1.op_class::SimdFloatCvt                  1      3.85%     65.38% # Class of executed instruction
system.cpu1.op_class::SimdFloatDiv                  1      3.85%     69.23% # Class of executed instruction
system.cpu1.op_class::SimdFloatMisc                 0      0.00%     69.23% # Class of executed instruction
system.cpu1.op_class::SimdFloatMult                 2      7.69%     76.92% # Class of executed instruction
system.cpu1.op_class::SimdFloatMultAcc              0      0.00%     76.92% # Class of executed instruction
system.cpu1.op_class::SimdFloatSqrt                 0      0.00%     76.92% # Class of executed instruction
system.cpu1.op_class::SimdReduceAdd                 0      0.00%     76.92% # Class of executed instruction
system.cpu1.op_class::SimdReduceAlu                 0      0.00%     76.92% # Class of executed instruction
system.cpu1.op_class::SimdReduceCmp                 0      0.00%     76.92% # Class of executed instruction
system.cpu1.op_class::SimdFloatReduceAdd            0      0.00%     76.92% # Class of executed instruction
system.cpu1.op_class::SimdFloatReduceCmp            0      0.00%     76.92% # Class of executed instruction
system.cpu1.op_class::SimdAes                       0      0.00%     76.92% # Class of executed instruction
system.cpu1.op_class::SimdAesMix                    0      0.00%     76.92% # Class of executed instruction
system.cpu1.op_class::SimdSha1Hash                  0      0.00%     76.92% # Class of executed instruction
system.cpu1.op_class::SimdSha1Hash2                 0      0.00%     76.92% # Class of executed instruction
system.cpu1.op_class::SimdSha256Hash                0      0.00%     76.92% # Class of executed instruction
system.cpu1.op_class::SimdSha256Hash2               0      0.00%     76.92% # Class of executed instruction
system.cpu1.op_class::SimdShaSigma2                 0      0.00%     76.92% # Class of executed instruction
system.cpu1.op_class::SimdShaSigma3                 0      0.00%     76.92% # Class of executed instruction
system.cpu1.op_class::SimdPredAlu                   0      0.00%     76.92% # Class of executed instruction
system.cpu1.op_class::MemRead                       0      0.00%     76.92% # Class of executed instruction
system.cpu1.op_class::MemWrite                      0      0.00%     76.92% # Class of executed instruction
system.cpu1.op_class::FloatMemRead                  5     19.23%     96.15% # Class of executed instruction
system.cpu1.op_class::FloatMemWrite                 1      3.85%    100.00% # Class of executed instruction
system.cpu1.op_class::IprAccess                     0      0.00%    100.00% # Class of executed instruction
system.cpu1.op_class::InstPrefetch                  0      0.00%    100.00% # Class of executed instruction
system.cpu1.op_class::total                        26                       # Class of executed instruction
system.cpu1.workload.numSyscalls                    0                       # Number of system calls
system.cpu2.Branches                                1                       # Number of branches fetched
system.cpu2.committedInsts                         15                       # Number of instructions committed
system.cpu2.committedOps                           26                       # Number of ops (including micro ops) committed
system.cpu2.idle_fraction                           0                       # Percentage of idle cycles
system.cpu2.l2bus.snoop_filter.hit_multi_requests          250                       # Number of requests hitting in the snoop filter with multiple (>1) holders of the requested data.
system.cpu2.l2bus.snoop_filter.hit_multi_snoops            0                       # Number of snoops hitting in the snoop filter with multiple (>1) holders of the requested data.
system.cpu2.l2bus.snoop_filter.hit_single_requests      1781408                       # Number of requests hitting in the snoop filter with a single holder of the requested data.
system.cpu2.l2bus.snoop_filter.hit_single_snoops        22140                       # Number of snoops hitting in the snoop filter with a single holder of the requested data.
system.cpu2.l2bus.snoop_filter.tot_requests      3452196                       # Total number of requests made to the snoop filter.
system.cpu2.l2bus.snoop_filter.tot_snoops        22140                       # Total number of snoops made to the snoop filter.
system.cpu2.mmucache.mmubus.snoop_filter.hit_multi_requests            0                       # Number of requests hitting in the snoop filter with multiple (>1) holders of the requested data.
system.cpu2.mmucache.mmubus.snoop_filter.hit_multi_snoops            0                       # Number of snoops hitting in the snoop filter with multiple (>1) holders of the requested data.
system.cpu2.mmucache.mmubus.snoop_filter.hit_single_requests            0                       # Number of requests hitting in the snoop filter with a single holder of the requested data.
system.cpu2.mmucache.mmubus.snoop_filter.hit_single_snoops            0                       # Number of snoops hitting in the snoop filter with a single holder of the requested data.
system.cpu2.mmucache.mmubus.snoop_filter.tot_requests            0                       # Total number of requests made to the snoop filter.
system.cpu2.mmucache.mmubus.snoop_filter.tot_snoops            0                       # Total number of snoops made to the snoop filter.
system.cpu2.not_idle_fraction                       1                       # Percentage of non-idle cycles
system.cpu2.numCycles                              31                       # number of cpu cycles simulated
system.cpu2.numWorkItemsCompleted                   0                       # number of work items this cpu completed
system.cpu2.numWorkItemsStarted                     0                       # number of work items this cpu started
system.cpu2.num_busy_cycles                        31                       # Number of busy cycles
system.cpu2.num_cc_register_reads                   9                       # number of times the CC registers were read
system.cpu2.num_cc_register_writes                  6                       # number of times the CC registers were written
system.cpu2.num_conditional_control_insts            1                       # number of instructions that are conditional controls
system.cpu2.num_fp_alu_accesses                    19                       # Number of float alu accesses
system.cpu2.num_fp_insts                           19                       # number of float instructions
system.cpu2.num_fp_register_reads                  25                       # number of times the floating registers were read
system.cpu2.num_fp_register_writes                 17                       # number of times the floating registers were written
system.cpu2.num_func_calls                          0                       # number of times a function call or return occured
system.cpu2.num_idle_cycles                         0                       # Number of idle cycles
system.cpu2.num_int_alu_accesses                   13                       # Number of integer alu accesses
system.cpu2.num_int_insts                          13                       # number of integer instructions
system.cpu2.num_int_register_reads                 29                       # number of times the integer registers were read
system.cpu2.num_int_register_writes                 6                       # number of times the integer registers were written
system.cpu2.num_load_insts                          5                       # Number of load instructions
system.cpu2.num_mem_refs                            6                       # number of memory refs
system.cpu2.num_store_insts                         1                       # Number of store instructions
system.cpu2.num_vec_alu_accesses                    0                       # Number of vector alu accesses
system.cpu2.num_vec_insts                           0                       # number of vector instructions
system.cpu2.num_vec_register_reads                  0                       # number of times the vector registers were read
system.cpu2.num_vec_register_writes                 0                       # number of times the vector registers were written
system.cpu2.op_class::No_OpClass                    0      0.00%      0.00% # Class of executed instruction
system.cpu2.op_class::IntAlu                        7     26.92%     26.92% # Class of executed instruction
system.cpu2.op_class::IntMult                       0      0.00%     26.92% # Class of executed instruction
system.cpu2.op_class::IntDiv                        0      0.00%     26.92% # Class of executed instruction
system.cpu2.op_class::FloatAdd                      4     15.38%     42.31% # Class of executed instruction
system.cpu2.op_class::FloatCmp                      0      0.00%     42.31% # Class of executed instruction
system.cpu2.op_class::FloatCvt                      0      0.00%     42.31% # Class of executed instruction
system.cpu2.op_class::FloatMult                     0      0.00%     42.31% # Class of executed instruction
system.cpu2.op_class::FloatMultAcc                  0      0.00%     42.31% # Class of executed instruction
system.cpu2.op_class::FloatDiv                      0      0.00%     42.31% # Class of executed instruction
system.cpu2.op_class::FloatMisc                     0      0.00%     42.31% # Class of executed instruction
system.cpu2.op_class::FloatSqrt                     0      0.00%     42.31% # Class of executed instruction
system.cpu2.op_class::SimdAdd                       0      0.00%     42.31% # Class of executed instruction
system.cpu2.op_class::SimdAddAcc                    0      0.00%     42.31% # Class of executed instruction
system.cpu2.op_class::SimdAlu                       2      7.69%     50.00% # Class of executed instruction
system.cpu2.op_class::SimdCmp                       0      0.00%     50.00% # Class of executed instruction
system.cpu2.op_class::SimdCvt                       0      0.00%     50.00% # Class of executed instruction
system.cpu2.op_class::SimdMisc                      0      0.00%     50.00% # Class of executed instruction
system.cpu2.op_class::SimdMult                      0      0.00%     50.00% # Class of executed instruction
system.cpu2.op_class::SimdMultAcc                   0      0.00%     50.00% # Class of executed instruction
system.cpu2.op_class::SimdShift                     0      0.00%     50.00% # Class of executed instruction
system.cpu2.op_class::SimdShiftAcc                  0      0.00%     50.00% # Class of executed instruction
system.cpu2.op_class::SimdDiv                       0      0.00%     50.00% # Class of executed instruction
system.cpu2.op_class::SimdSqrt                      0      0.00%     50.00% # Class of executed instruction
system.cpu2.op_class::SimdFloatAdd                  3     11.54%     61.54% # Class of executed instruction
system.cpu2.op_class::SimdFloatAlu                  0      0.00%     61.54% # Class of executed instruction
system.cpu2.op_class::SimdFloatCmp                  0      0.00%     61.54% # Class of executed instruction
system.cpu2.op_class::SimdFloatCvt                  1      3.85%     65.38% # Class of executed instruction
system.cpu2.op_class::SimdFloatDiv                  1      3.85%     69.23% # Class of executed instruction
system.cpu2.op_class::SimdFloatMisc                 0      0.00%     69.23% # Class of executed instruction
system.cpu2.op_class::SimdFloatMult                 2      7.69%     76.92% # Class of executed instruction
system.cpu2.op_class::SimdFloatMultAcc              0      0.00%     76.92% # Class of executed instruction
system.cpu2.op_class::SimdFloatSqrt                 0      0.00%     76.92% # Class of executed instruction
system.cpu2.op_class::SimdReduceAdd                 0      0.00%     76.92% # Class of executed instruction
system.cpu2.op_class::SimdReduceAlu                 0      0.00%     76.92% # Class of executed instruction
system.cpu2.op_class::SimdReduceCmp                 0      0.00%     76.92% # Class of executed instruction
system.cpu2.op_class::SimdFloatReduceAdd            0      0.00%     76.92% # Class of executed instruction
system.cpu2.op_class::SimdFloatReduceCmp            0      0.00%     76.92% # Class of executed instruction
system.cpu2.op_class::SimdAes                       0      0.00%     76.92% # Class of executed instruction
system.cpu2.op_class::SimdAesMix                    0      0.00%     76.92% # Class of executed instruction
system.cpu2.op_class::SimdSha1Hash                  0      0.00%     76.92% # Class of executed instruction
system.cpu2.op_class::SimdSha1Hash2                 0      0.00%     76.92% # Class of executed instruction
system.cpu2.op_class::SimdSha256Hash                0      0.00%     76.92% # Class of executed instruction
system.cpu2.op_class::SimdSha256Hash2               0      0.00%     76.92% # Class of executed instruction
system.cpu2.op_class::SimdShaSigma2                 0      0.00%     76.92% # Class of executed instruction
system.cpu2.op_class::SimdShaSigma3                 0      0.00%     76.92% # Class of executed instruction
system.cpu2.op_class::SimdPredAlu                   0      0.00%     76.92% # Class of executed instruction
system.cpu2.op_class::MemRead                       0      0.00%     76.92% # Class of executed instruction
system.cpu2.op_class::MemWrite                      0      0.00%     76.92% # Class of executed instruction
system.cpu2.op_class::FloatMemRead                  5     19.23%     96.15% # Class of executed instruction
system.cpu2.op_class::FloatMemWrite                 1      3.85%    100.00% # Class of executed instruction
system.cpu2.op_class::IprAccess                     0      0.00%    100.00% # Class of executed instruction
system.cpu2.op_class::InstPrefetch                  0      0.00%    100.00% # Class of executed instruction
system.cpu2.op_class::total                        26                       # Class of executed instruction
system.cpu2.workload.numSyscalls                    0                       # Number of system calls
system.cpu3.Branches                                1                       # Number of branches fetched
system.cpu3.committedInsts                         15                       # Number of instructions committed
system.cpu3.committedOps                           26                       # Number of ops (including micro ops) committed
system.cpu3.idle_fraction                           0                       # Percentage of idle cycles
system.cpu3.l2bus.snoop_filter.hit_multi_requests          431                       # Number of requests hitting in the snoop filter with multiple (>1) holders of the requested data.
system.cpu3.l2bus.snoop_filter.hit_multi_snoops            0                       # Number of snoops hitting in the snoop filter with multiple (>1) holders of the requested data.
system.cpu3.l2bus.snoop_filter.hit_single_requests      1789357                       # Number of requests hitting in the snoop filter with a single holder of the requested data.
system.cpu3.l2bus.snoop_filter.hit_single_snoops        21945                       # Number of snoops hitting in the snoop filter with a single holder of the requested data.
system.cpu3.l2bus.snoop_filter.tot_requests      3467064                       # Total number of requests made to the snoop filter.
system.cpu3.l2bus.snoop_filter.tot_snoops        21945                       # Total number of snoops made to the snoop filter.
system.cpu3.mmucache.mmubus.snoop_filter.hit_multi_requests            0                       # Number of requests hitting in the snoop filter with multiple (>1) holders of the requested data.
system.cpu3.mmucache.mmubus.snoop_filter.hit_multi_snoops            0                       # Number of snoops hitting in the snoop filter with multiple (>1) holders of the requested data.
system.cpu3.mmucache.mmubus.snoop_filter.hit_single_requests            0                       # Number of requests hitting in the snoop filter with a single holder of the requested data.
system.cpu3.mmucache.mmubus.snoop_filter.hit_single_snoops            0                       # Number of snoops hitting in the snoop filter with a single holder of the requested data.
system.cpu3.mmucache.mmubus.snoop_filter.tot_requests            0                       # Total number of requests made to the snoop filter.
system.cpu3.mmucache.mmubus.snoop_filter.tot_snoops            0                       # Total number of snoops made to the snoop filter.
system.cpu3.not_idle_fraction                       1                       # Percentage of non-idle cycles
system.cpu3.numCycles                              31                       # number of cpu cycles simulated
system.cpu3.numWorkItemsCompleted                   0                       # number of work items this cpu completed
system.cpu3.numWorkItemsStarted                     0                       # number of work items this cpu started
system.cpu3.num_busy_cycles                        31                       # Number of busy cycles
system.cpu3.num_cc_register_reads                   9                       # number of times the CC registers were read
system.cpu3.num_cc_register_writes                  6                       # number of times the CC registers were written
system.cpu3.num_conditional_control_insts            1                       # number of instructions that are conditional controls
system.cpu3.num_fp_alu_accesses                    19                       # Number of float alu accesses
system.cpu3.num_fp_insts                           19                       # number of float instructions
system.cpu3.num_fp_register_reads                  25                       # number of times the floating registers were read
system.cpu3.num_fp_register_writes                 17                       # number of times the floating registers were written
system.cpu3.num_func_calls                          0                       # number of times a function call or return occured
system.cpu3.num_idle_cycles                         0                       # Number of idle cycles
system.cpu3.num_int_alu_accesses                   13                       # Number of integer alu accesses
system.cpu3.num_int_insts                          13                       # number of integer instructions
system.cpu3.num_int_register_reads                 29                       # number of times the integer registers were read
system.cpu3.num_int_register_writes                 6                       # number of times the integer registers were written
system.cpu3.num_load_insts                          5                       # Number of load instructions
system.cpu3.num_mem_refs                            6                       # number of memory refs
system.cpu3.num_store_insts                         1                       # Number of store instructions
system.cpu3.num_vec_alu_accesses                    0                       # Number of vector alu accesses
system.cpu3.num_vec_insts                           0                       # number of vector instructions
system.cpu3.num_vec_register_reads                  0                       # number of times the vector registers were read
system.cpu3.num_vec_register_writes                 0                       # number of times the vector registers were written
system.cpu3.op_class::No_OpClass                    0      0.00%      0.00% # Class of executed instruction
system.cpu3.op_class::IntAlu                        7     26.92%     26.92% # Class of executed instruction
system.cpu3.op_class::IntMult                       0      0.00%     26.92% # Class of executed instruction
system.cpu3.op_class::IntDiv                        0      0.00%     26.92% # Class of executed instruction
system.cpu3.op_class::FloatAdd                      4     15.38%     42.31% # Class of executed instruction
system.cpu3.op_class::FloatCmp                      0      0.00%     42.31% # Class of executed instruction
system.cpu3.op_class::FloatCvt                      0      0.00%     42.31% # Class of executed instruction
system.cpu3.op_class::FloatMult                     0      0.00%     42.31% # Class of executed instruction
system.cpu3.op_class::FloatMultAcc                  0      0.00%     42.31% # Class of executed instruction
system.cpu3.op_class::FloatDiv                      0      0.00%     42.31% # Class of executed instruction
system.cpu3.op_class::FloatMisc                     0      0.00%     42.31% # Class of executed instruction
system.cpu3.op_class::FloatSqrt                     0      0.00%     42.31% # Class of executed instruction
system.cpu3.op_class::SimdAdd                       0      0.00%     42.31% # Class of executed instruction
system.cpu3.op_class::SimdAddAcc                    0      0.00%     42.31% # Class of executed instruction
system.cpu3.op_class::SimdAlu                       2      7.69%     50.00% # Class of executed instruction
system.cpu3.op_class::SimdCmp                       0      0.00%     50.00% # Class of executed instruction
system.cpu3.op_class::SimdCvt                       0      0.00%     50.00% # Class of executed instruction
system.cpu3.op_class::SimdMisc                      0      0.00%     50.00% # Class of executed instruction
system.cpu3.op_class::SimdMult                      0      0.00%     50.00% # Class of executed instruction
system.cpu3.op_class::SimdMultAcc                   0      0.00%     50.00% # Class of executed instruction
system.cpu3.op_class::SimdShift                     0      0.00%     50.00% # Class of executed instruction
system.cpu3.op_class::SimdShiftAcc                  0      0.00%     50.00% # Class of executed instruction
system.cpu3.op_class::SimdDiv                       0      0.00%     50.00% # Class of executed instruction
system.cpu3.op_class::SimdSqrt                      0      0.00%     50.00% # Class of executed instruction
system.cpu3.op_class::SimdFloatAdd                  3     11.54%     61.54% # Class of executed instruction
system.cpu3.op_class::SimdFloatAlu                  0      0.00%     61.54% # Class of executed instruction
system.cpu3.op_class::SimdFloatCmp                  0      0.00%     61.54% # Class of executed instruction
system.cpu3.op_class::SimdFloatCvt                  1      3.85%     65.38% # Class of executed instruction
system.cpu3.op_class::SimdFloatDiv                  1      3.85%     69.23% # Class of executed instruction
system.cpu3.op_class::SimdFloatMisc                 0      0.00%     69.23% # Class of executed instruction
system.cpu3.op_class::SimdFloatMult                 2      7.69%     76.92% # Class of executed instruction
system.cpu3.op_class::SimdFloatMultAcc              0      0.00%     76.92% # Class of executed instruction
system.cpu3.op_class::SimdFloatSqrt                 0      0.00%     76.92% # Class of executed instruction
system.cpu3.op_class::SimdReduceAdd                 0      0.00%     76.92% # Class of executed instruction
system.cpu3.op_class::SimdReduceAlu                 0      0.00%     76.92% # Class of executed instruction
system.cpu3.op_class::SimdReduceCmp                 0      0.00%     76.92% # Class of executed instruction
system.cpu3.op_class::SimdFloatReduceAdd            0      0.00%     76.92% # Class of executed instruction
system.cpu3.op_class::SimdFloatReduceCmp            0      0.00%     76.92% # Class of executed instruction
system.cpu3.op_class::SimdAes                       0      0.00%     76.92% # Class of executed instruction
system.cpu3.op_class::SimdAesMix                    0      0.00%     76.92% # Class of executed instruction
system.cpu3.op_class::SimdSha1Hash                  0      0.00%     76.92% # Class of executed instruction
system.cpu3.op_class::SimdSha1Hash2                 0      0.00%     76.92% # Class of executed instruction
system.cpu3.op_class::SimdSha256Hash                0      0.00%     76.92% # Class of executed instruction
system.cpu3.op_class::SimdSha256Hash2               0      0.00%     76.92% # Class of executed instruction
system.cpu3.op_class::SimdShaSigma2                 0      0.00%     76.92% # Class of executed instruction
system.cpu3.op_class::SimdShaSigma3                 0      0.00%     76.92% # Class of executed instruction
system.cpu3.op_class::SimdPredAlu                   0      0.00%     76.92% # Class of executed instruction
system.cpu3.op_class::MemRead                       0      0.00%     76.92% # Class of executed instruction
system.cpu3.op_class::MemWrite                      0      0.00%     76.92% # Class of executed instruction
system.cpu3.op_class::FloatMemRead                  5     19.23%     96.15% # Class of executed instruction
system.cpu3.op_class::FloatMemWrite                 1      3.85%    100.00% # Class of executed instruction
system.cpu3.op_class::IprAccess                     0      0.00%    100.00% # Class of executed instruction
system.cpu3.op_class::InstPrefetch                  0      0.00%    100.00% # Class of executed instruction
system.cpu3.op_class::total                        26                       # Class of executed instruction
system.cpu3.workload.numSyscalls                    0                       # Number of system calls
system.l3bus.snoop_filter.hit_multi_requests            0                       # Number of requests hitting in the snoop filter with multiple (>1) holders of the requested data.
system.l3bus.snoop_filter.hit_multi_snoops            0                       # Number of snoops hitting in the snoop filter with multiple (>1) holders of the requested data.
system.l3bus.snoop_filter.hit_single_requests      4725350                       # Number of requests hitting in the snoop filter with a single holder of the requested data.
system.l3bus.snoop_filter.hit_single_snoops            0                       # Number of snoops hitting in the snoop filter with a single holder of the requested data.
system.l3bus.snoop_filter.tot_requests        9467442                       # Total number of requests made to the snoop filter.
system.l3bus.snoop_filter.tot_snoops                0                       # Total number of snoops made to the snoop filter.
system.membus.snoop_filter.hit_multi_requests            0                       # Number of requests hitting in the snoop filter with multiple (>1) holders of the requested data.
system.membus.snoop_filter.hit_multi_snoops            0                       # Number of snoops hitting in the snoop filter with multiple (>1) holders of the requested data.
system.membus.snoop_filter.hit_single_requests       886858                       # Number of requests hitting in the snoop filter with a single holder of the requested data.
system.membus.snoop_filter.hit_single_snoops            0                       # Number of snoops hitting in the snoop filter with a single holder of the requested data.
system.membus.snoop_filter.tot_requests       1849688                       # Total number of requests made to the snoop filter.
system.membus.snoop_filter.tot_snoops               0                       # Total number of snoops made to the snoop filter.
system.switch_cpus0.cc_regfile_reads        193084496                       # number of cc regfile reads
system.switch_cpus0.cc_regfile_writes       110332333                       # number of cc regfile writes
system.switch_cpus0.committedInsts          249851939                       # Number of Instructions Simulated
system.switch_cpus0.committedOps            456175489                       # Number of Ops (including micro ops) Simulated
system.switch_cpus0.cpi                      0.695325                       # CPI: Cycles Per Instruction
system.switch_cpus0.cpi_total                0.695325                       # CPI: Total CPI of All Threads
system.switch_cpus0.fp_regfile_reads        309300886                       # number of floating regfile reads
system.switch_cpus0.fp_regfile_writes       225682452                       # number of floating regfile writes
system.switch_cpus0.idleCycles                 501601                       # Total number of cycles that the CPU has spent unscheduled due to idling
system.switch_cpus0.iew.branchMispredicts       619437                       # Number of branch mispredicts detected at execute
system.switch_cpus0.iew.exec_branches        34838806                       # Number of branches executed
system.switch_cpus0.iew.exec_nop                    0                       # number of nop insts executed
system.switch_cpus0.iew.exec_rate            2.824889                       # Inst execution rate
system.switch_cpus0.iew.exec_refs           107678334                       # number of memory reference insts executed
system.switch_cpus0.iew.exec_stores          30539362                       # Number of stores executed
system.switch_cpus0.iew.exec_swp                    0                       # number of swp insts executed
system.switch_cpus0.iew.iewBlockCycles       22640406                       # Number of cycles IEW is blocking
system.switch_cpus0.iew.iewDispLoadInsts     77023433                       # Number of dispatched load instructions
system.switch_cpus0.iew.iewDispNonSpecInsts         2128                       # Number of dispatched non-speculative instructions
system.switch_cpus0.iew.iewDispSquashedInsts        14184                       # Number of squashed instructions skipped by dispatch
system.switch_cpus0.iew.iewDispStoreInsts     32704420                       # Number of dispatched store instructions
system.switch_cpus0.iew.iewDispatchedInsts    499976707                       # Number of instructions dispatched to IQ
system.switch_cpus0.iew.iewExecLoadInsts     77138972                       # Number of load instructions executed
system.switch_cpus0.iew.iewExecSquashedInsts      2038538                       # Number of squashed instructions skipped in execute
system.switch_cpus0.iew.iewExecutedInsts    490763339                       # Number of executed instructions
system.switch_cpus0.iew.iewIQFullEvents        170370                       # Number of times the IQ has become full, causing a stall
system.switch_cpus0.iew.iewIdleCycles               0                       # Number of cycles IEW is idle
system.switch_cpus0.iew.iewLSQFullEvents      6531313                       # Number of times the LSQ has become full, causing a stall
system.switch_cpus0.iew.iewSquashCycles        724380                       # Number of cycles IEW is squashing
system.switch_cpus0.iew.iewUnblockCycles      6754726                       # Number of cycles IEW is unblocking
system.switch_cpus0.iew.memOrderViolationEvents        10880                       # Number of memory order violations
system.switch_cpus0.iew.predictedNotTakenIncorrect       226521                       # Number of branches that were predicted not taken incorrectly
system.switch_cpus0.iew.predictedTakenIncorrect       392916                       # Number of branches that were predicted taken incorrectly
system.switch_cpus0.iew.wb_consumers        536471174                       # num instructions consuming a value
system.switch_cpus0.iew.wb_count            487366018                       # cumulative count of insts written-back
system.switch_cpus0.iew.wb_fanout            0.600140                       # average fanout of values written-back
system.switch_cpus0.iew.wb_producers        321957945                       # num instructions producing a value
system.switch_cpus0.iew.wb_rate              2.805334                       # insts written-back per cycle
system.switch_cpus0.iew.wb_sent             489251743                       # cumulative count of insts sent to commit
system.switch_cpus0.int_regfile_reads       419795743                       # number of integer regfile reads
system.switch_cpus0.int_regfile_writes      182805945                       # number of integer regfile writes
system.switch_cpus0.ipc                      1.438176                       # IPC: Instructions Per Cycle
system.switch_cpus0.ipc_total                1.438176                       # IPC: Total IPC of All Threads
system.switch_cpus0.iq.FU_type_0::No_OpClass      1570905      0.32%      0.32% # Type of FU issued
system.switch_cpus0.iq.FU_type_0::IntAlu    222826536     45.22%     45.54% # Type of FU issued
system.switch_cpus0.iq.FU_type_0::IntMult        11431      0.00%     45.54% # Type of FU issued
system.switch_cpus0.iq.FU_type_0::IntDiv            0      0.00%     45.54% # Type of FU issued
system.switch_cpus0.iq.FU_type_0::FloatAdd     68813287     13.96%     59.50% # Type of FU issued
system.switch_cpus0.iq.FU_type_0::FloatCmp            0      0.00%     59.50% # Type of FU issued
system.switch_cpus0.iq.FU_type_0::FloatCvt            0      0.00%     59.50% # Type of FU issued
system.switch_cpus0.iq.FU_type_0::FloatMult            0      0.00%     59.50% # Type of FU issued
system.switch_cpus0.iq.FU_type_0::FloatMultAcc            0      0.00%     59.50% # Type of FU issued
system.switch_cpus0.iq.FU_type_0::FloatDiv            0      0.00%     59.50% # Type of FU issued
system.switch_cpus0.iq.FU_type_0::FloatMisc            0      0.00%     59.50% # Type of FU issued
system.switch_cpus0.iq.FU_type_0::FloatSqrt            0      0.00%     59.50% # Type of FU issued
system.switch_cpus0.iq.FU_type_0::SimdAdd            0      0.00%     59.50% # Type of FU issued
system.switch_cpus0.iq.FU_type_0::SimdAddAcc            0      0.00%     59.50% # Type of FU issued
system.switch_cpus0.iq.FU_type_0::SimdAlu      9242166      1.88%     61.38% # Type of FU issued
system.switch_cpus0.iq.FU_type_0::SimdCmp            0      0.00%     61.38% # Type of FU issued
system.switch_cpus0.iq.FU_type_0::SimdCvt            0      0.00%     61.38% # Type of FU issued
system.switch_cpus0.iq.FU_type_0::SimdMisc      5714963      1.16%     62.54% # Type of FU issued
system.switch_cpus0.iq.FU_type_0::SimdMult            0      0.00%     62.54% # Type of FU issued
system.switch_cpus0.iq.FU_type_0::SimdMultAcc            0      0.00%     62.54% # Type of FU issued
system.switch_cpus0.iq.FU_type_0::SimdShift            0      0.00%     62.54% # Type of FU issued
system.switch_cpus0.iq.FU_type_0::SimdShiftAcc            0      0.00%     62.54% # Type of FU issued
system.switch_cpus0.iq.FU_type_0::SimdDiv            0      0.00%     62.54% # Type of FU issued
system.switch_cpus0.iq.FU_type_0::SimdSqrt            0      0.00%     62.54% # Type of FU issued
system.switch_cpus0.iq.FU_type_0::SimdFloatAdd     23841563      4.84%     67.37% # Type of FU issued
system.switch_cpus0.iq.FU_type_0::SimdFloatAlu            0      0.00%     67.37% # Type of FU issued
system.switch_cpus0.iq.FU_type_0::SimdFloatCmp       652189      0.13%     67.51% # Type of FU issued
system.switch_cpus0.iq.FU_type_0::SimdFloatCvt     18088987      3.67%     71.18% # Type of FU issued
system.switch_cpus0.iq.FU_type_0::SimdFloatDiv      5720743      1.16%     72.34% # Type of FU issued
system.switch_cpus0.iq.FU_type_0::SimdFloatMisc            0      0.00%     72.34% # Type of FU issued
system.switch_cpus0.iq.FU_type_0::SimdFloatMult     27062141      5.49%     77.83% # Type of FU issued
system.switch_cpus0.iq.FU_type_0::SimdFloatMultAcc            0      0.00%     77.83% # Type of FU issued
system.switch_cpus0.iq.FU_type_0::SimdFloatSqrt      1016267      0.21%     78.04% # Type of FU issued
system.switch_cpus0.iq.FU_type_0::SimdReduceAdd            0      0.00%     78.04% # Type of FU issued
system.switch_cpus0.iq.FU_type_0::SimdReduceAlu            0      0.00%     78.04% # Type of FU issued
system.switch_cpus0.iq.FU_type_0::SimdReduceCmp            0      0.00%     78.04% # Type of FU issued
system.switch_cpus0.iq.FU_type_0::SimdFloatReduceAdd            0      0.00%     78.04% # Type of FU issued
system.switch_cpus0.iq.FU_type_0::SimdFloatReduceCmp            0      0.00%     78.04% # Type of FU issued
system.switch_cpus0.iq.FU_type_0::SimdAes            0      0.00%     78.04% # Type of FU issued
system.switch_cpus0.iq.FU_type_0::SimdAesMix            0      0.00%     78.04% # Type of FU issued
system.switch_cpus0.iq.FU_type_0::SimdSha1Hash            0      0.00%     78.04% # Type of FU issued
system.switch_cpus0.iq.FU_type_0::SimdSha1Hash2            0      0.00%     78.04% # Type of FU issued
system.switch_cpus0.iq.FU_type_0::SimdSha256Hash            0      0.00%     78.04% # Type of FU issued
system.switch_cpus0.iq.FU_type_0::SimdSha256Hash2            0      0.00%     78.04% # Type of FU issued
system.switch_cpus0.iq.FU_type_0::SimdShaSigma2            0      0.00%     78.04% # Type of FU issued
system.switch_cpus0.iq.FU_type_0::SimdShaSigma3            0      0.00%     78.04% # Type of FU issued
system.switch_cpus0.iq.FU_type_0::SimdPredAlu            0      0.00%     78.04% # Type of FU issued
system.switch_cpus0.iq.FU_type_0::MemRead     17033855      3.46%     81.49% # Type of FU issued
system.switch_cpus0.iq.FU_type_0::MemWrite      7987056      1.62%     83.11% # Type of FU issued
system.switch_cpus0.iq.FU_type_0::FloatMemRead     60547616     12.29%     95.40% # Type of FU issued
system.switch_cpus0.iq.FU_type_0::FloatMemWrite     22672172      4.60%    100.00% # Type of FU issued
system.switch_cpus0.iq.FU_type_0::IprAccess            0      0.00%    100.00% # Type of FU issued
system.switch_cpus0.iq.FU_type_0::InstPrefetch            0      0.00%    100.00% # Type of FU issued
system.switch_cpus0.iq.FU_type_0::total     492801877                       # Type of FU issued
system.switch_cpus0.iq.fp_alu_accesses      272118416                       # Number of floating point alu accesses
system.switch_cpus0.iq.fp_inst_queue_reads    541765607                       # Number of floating instruction queue reads
system.switch_cpus0.iq.fp_inst_queue_wakeup_accesses    266613512                       # Number of floating instruction queue wakeup accesses
system.switch_cpus0.iq.fp_inst_queue_writes    294635670                       # Number of floating instruction queue writes
system.switch_cpus0.iq.fu_busy_cnt            4769317                       # FU busy when requested
system.switch_cpus0.iq.fu_busy_rate          0.009678                       # FU busy rate (busy events/executed inst)
system.switch_cpus0.iq.fu_full::No_OpClass            0      0.00%      0.00% # attempts to use FU when none available
system.switch_cpus0.iq.fu_full::IntAlu        1328370     27.85%     27.85% # attempts to use FU when none available
system.switch_cpus0.iq.fu_full::IntMult             0      0.00%     27.85% # attempts to use FU when none available
system.switch_cpus0.iq.fu_full::IntDiv              0      0.00%     27.85% # attempts to use FU when none available
system.switch_cpus0.iq.fu_full::FloatAdd        94228      1.98%     29.83% # attempts to use FU when none available
system.switch_cpus0.iq.fu_full::FloatCmp            0      0.00%     29.83% # attempts to use FU when none available
system.switch_cpus0.iq.fu_full::FloatCvt            0      0.00%     29.83% # attempts to use FU when none available
system.switch_cpus0.iq.fu_full::FloatMult            0      0.00%     29.83% # attempts to use FU when none available
system.switch_cpus0.iq.fu_full::FloatMultAcc            0      0.00%     29.83% # attempts to use FU when none available
system.switch_cpus0.iq.fu_full::FloatDiv            0      0.00%     29.83% # attempts to use FU when none available
system.switch_cpus0.iq.fu_full::FloatMisc            0      0.00%     29.83% # attempts to use FU when none available
system.switch_cpus0.iq.fu_full::FloatSqrt            0      0.00%     29.83% # attempts to use FU when none available
system.switch_cpus0.iq.fu_full::SimdAdd             0      0.00%     29.83% # attempts to use FU when none available
system.switch_cpus0.iq.fu_full::SimdAddAcc            0      0.00%     29.83% # attempts to use FU when none available
system.switch_cpus0.iq.fu_full::SimdAlu        191515      4.02%     33.84% # attempts to use FU when none available
system.switch_cpus0.iq.fu_full::SimdCmp             0      0.00%     33.84% # attempts to use FU when none available
system.switch_cpus0.iq.fu_full::SimdCvt             0      0.00%     33.84% # attempts to use FU when none available
system.switch_cpus0.iq.fu_full::SimdMisc        26724      0.56%     34.40% # attempts to use FU when none available
system.switch_cpus0.iq.fu_full::SimdMult            0      0.00%     34.40% # attempts to use FU when none available
system.switch_cpus0.iq.fu_full::SimdMultAcc            0      0.00%     34.40% # attempts to use FU when none available
system.switch_cpus0.iq.fu_full::SimdShift            0      0.00%     34.40% # attempts to use FU when none available
system.switch_cpus0.iq.fu_full::SimdShiftAcc            0      0.00%     34.40% # attempts to use FU when none available
system.switch_cpus0.iq.fu_full::SimdDiv             0      0.00%     34.40% # attempts to use FU when none available
system.switch_cpus0.iq.fu_full::SimdSqrt            0      0.00%     34.40% # attempts to use FU when none available
system.switch_cpus0.iq.fu_full::SimdFloatAdd        89847      1.88%     36.29% # attempts to use FU when none available
system.switch_cpus0.iq.fu_full::SimdFloatAlu            0      0.00%     36.29% # attempts to use FU when none available
system.switch_cpus0.iq.fu_full::SimdFloatCmp            3      0.00%     36.29% # attempts to use FU when none available
system.switch_cpus0.iq.fu_full::SimdFloatCvt       141059      2.96%     39.25% # attempts to use FU when none available
system.switch_cpus0.iq.fu_full::SimdFloatDiv        14907      0.31%     39.56% # attempts to use FU when none available
system.switch_cpus0.iq.fu_full::SimdFloatMisc            0      0.00%     39.56% # attempts to use FU when none available
system.switch_cpus0.iq.fu_full::SimdFloatMult        92198      1.93%     41.49% # attempts to use FU when none available
system.switch_cpus0.iq.fu_full::SimdFloatMultAcc            0      0.00%     41.49% # attempts to use FU when none available
system.switch_cpus0.iq.fu_full::SimdFloatSqrt         1008      0.02%     41.51% # attempts to use FU when none available
system.switch_cpus0.iq.fu_full::SimdReduceAdd            0      0.00%     41.51% # attempts to use FU when none available
system.switch_cpus0.iq.fu_full::SimdReduceAlu            0      0.00%     41.51% # attempts to use FU when none available
system.switch_cpus0.iq.fu_full::SimdReduceCmp            0      0.00%     41.51% # attempts to use FU when none available
system.switch_cpus0.iq.fu_full::SimdFloatReduceAdd            0      0.00%     41.51% # attempts to use FU when none available
system.switch_cpus0.iq.fu_full::SimdFloatReduceCmp            0      0.00%     41.51% # attempts to use FU when none available
system.switch_cpus0.iq.fu_full::SimdAes             0      0.00%     41.51% # attempts to use FU when none available
system.switch_cpus0.iq.fu_full::SimdAesMix            0      0.00%     41.51% # attempts to use FU when none available
system.switch_cpus0.iq.fu_full::SimdSha1Hash            0      0.00%     41.51% # attempts to use FU when none available
system.switch_cpus0.iq.fu_full::SimdSha1Hash2            0      0.00%     41.51% # attempts to use FU when none available
system.switch_cpus0.iq.fu_full::SimdSha256Hash            0      0.00%     41.51% # attempts to use FU when none available
system.switch_cpus0.iq.fu_full::SimdSha256Hash2            0      0.00%     41.51% # attempts to use FU when none available
system.switch_cpus0.iq.fu_full::SimdShaSigma2            0      0.00%     41.51% # attempts to use FU when none available
system.switch_cpus0.iq.fu_full::SimdShaSigma3            0      0.00%     41.51% # attempts to use FU when none available
system.switch_cpus0.iq.fu_full::SimdPredAlu            0      0.00%     41.51% # attempts to use FU when none available
system.switch_cpus0.iq.fu_full::MemRead        398826      8.36%     49.87% # attempts to use FU when none available
system.switch_cpus0.iq.fu_full::MemWrite       650571     13.64%     63.52% # attempts to use FU when none available
system.switch_cpus0.iq.fu_full::FloatMemRead      1107040     23.21%     86.73% # attempts to use FU when none available
system.switch_cpus0.iq.fu_full::FloatMemWrite       633021     13.27%    100.00% # attempts to use FU when none available
system.switch_cpus0.iq.fu_full::IprAccess            0      0.00%    100.00% # attempts to use FU when none available
system.switch_cpus0.iq.fu_full::InstPrefetch            0      0.00%    100.00% # attempts to use FU when none available
system.switch_cpus0.iq.int_alu_accesses     223881873                       # Number of integer alu accesses
system.switch_cpus0.iq.int_inst_queue_reads    622085181                       # Number of integer instruction queue reads
system.switch_cpus0.iq.int_inst_queue_wakeup_accesses    220752506                       # Number of integer instruction queue wakeup accesses
system.switch_cpus0.iq.int_inst_queue_writes    249152799                       # Number of integer instruction queue writes
system.switch_cpus0.iq.iqInstsAdded         499849391                       # Number of instructions added to the IQ (excludes non-spec)
system.switch_cpus0.iq.iqInstsIssued        492801877                       # Number of instructions issued
system.switch_cpus0.iq.iqNonSpecInstsAdded       127316                       # Number of non-speculative instructions added to the IQ
system.switch_cpus0.iq.iqSquashedInstsExamined     43801101                       # Number of squashed instructions iterated over during squash; mainly for profiling
system.switch_cpus0.iq.iqSquashedInstsIssued       250967                       # Number of squashed instructions issued
system.switch_cpus0.iq.iqSquashedNonSpecRemoved       114452                       # Number of squashed non-spec instructions that were removed
system.switch_cpus0.iq.iqSquashedOperandsExamined     36353978                       # Number of squashed operands that are examined and possibly removed from graph
system.switch_cpus0.iq.issued_per_cycle::samples    173226750                       # Number of insts issued each cycle
system.switch_cpus0.iq.issued_per_cycle::mean     2.844837                       # Number of insts issued each cycle
system.switch_cpus0.iq.issued_per_cycle::stdev     3.028621                       # Number of insts issued each cycle
system.switch_cpus0.iq.issued_per_cycle::underflows            0      0.00%      0.00% # Number of insts issued each cycle
system.switch_cpus0.iq.issued_per_cycle::0     74543930     43.03%     43.03% # Number of insts issued each cycle
system.switch_cpus0.iq.issued_per_cycle::1      8723720      5.04%     48.07% # Number of insts issued each cycle
system.switch_cpus0.iq.issued_per_cycle::2      9870278      5.70%     53.77% # Number of insts issued each cycle
system.switch_cpus0.iq.issued_per_cycle::3     11287746      6.52%     60.28% # Number of insts issued each cycle
system.switch_cpus0.iq.issued_per_cycle::4     11577618      6.68%     66.97% # Number of insts issued each cycle
system.switch_cpus0.iq.issued_per_cycle::5     12352686      7.13%     74.10% # Number of insts issued each cycle
system.switch_cpus0.iq.issued_per_cycle::6     11887162      6.86%     80.96% # Number of insts issued each cycle
system.switch_cpus0.iq.issued_per_cycle::7     12791391      7.38%     88.34% # Number of insts issued each cycle
system.switch_cpus0.iq.issued_per_cycle::8     20192219     11.66%    100.00% # Number of insts issued each cycle
system.switch_cpus0.iq.issued_per_cycle::overflows            0      0.00%    100.00% # Number of insts issued each cycle
system.switch_cpus0.iq.issued_per_cycle::min_value            0                       # Number of insts issued each cycle
system.switch_cpus0.iq.issued_per_cycle::max_value            8                       # Number of insts issued each cycle
system.switch_cpus0.iq.issued_per_cycle::total    173226750                       # Number of insts issued each cycle
system.switch_cpus0.iq.rate                  2.836623                       # Inst issue rate
system.switch_cpus0.iq.vec_alu_accesses             0                       # Number of vector alu accesses
system.switch_cpus0.iq.vec_inst_queue_reads            0                       # Number of vector instruction queue reads
system.switch_cpus0.iq.vec_inst_queue_wakeup_accesses            0                       # Number of vector instruction queue wakeup accesses
system.switch_cpus0.iq.vec_inst_queue_writes            0                       # Number of vector instruction queue writes
system.switch_cpus0.memDep0.conflictingLoads      3517917                       # Number of conflicting loads.
system.switch_cpus0.memDep0.conflictingStores      3250246                       # Number of conflicting stores.
system.switch_cpus0.memDep0.insertedLoads     77023433                       # Number of loads inserted to the mem dependence unit.
system.switch_cpus0.memDep0.insertedStores     32704420                       # Number of stores inserted to the mem dependence unit.
system.switch_cpus0.misc_regfile_reads      194569403                       # number of misc regfile reads
system.switch_cpus0.misc_regfile_writes             1                       # number of misc regfile writes
system.switch_cpus0.numCycles               173728351                       # number of cpu cycles simulated
system.switch_cpus0.numWorkItemsCompleted            0                       # number of work items this cpu completed
system.switch_cpus0.numWorkItemsStarted             0                       # number of work items this cpu started
system.switch_cpus0.timesIdled                  12018                       # Number of times that the entire CPU went into an idle state and unscheduled itself
system.switch_cpus1.cc_regfile_reads        193061922                       # number of cc regfile reads
system.switch_cpus1.cc_regfile_writes       110314237                       # number of cc regfile writes
system.switch_cpus1.committedInsts          249817141                       # Number of Instructions Simulated
system.switch_cpus1.committedOps            456116645                       # Number of Ops (including micro ops) Simulated
system.switch_cpus1.cpi                      0.695422                       # CPI: Cycles Per Instruction
system.switch_cpus1.cpi_total                0.695422                       # CPI: Total CPI of All Threads
system.switch_cpus1.fp_regfile_reads        309291770                       # number of floating regfile reads
system.switch_cpus1.fp_regfile_writes       225665162                       # number of floating regfile writes
system.switch_cpus1.idleCycles                 536712                       # Total number of cycles that the CPU has spent unscheduled due to idling
system.switch_cpus1.iew.branchMispredicts       619356                       # Number of branch mispredicts detected at execute
system.switch_cpus1.iew.exec_branches        34835064                       # Number of branches executed
system.switch_cpus1.iew.exec_nop                    0                       # number of nop insts executed
system.switch_cpus1.iew.exec_rate            2.824629                       # Inst execution rate
system.switch_cpus1.iew.exec_refs           107663600                       # number of memory reference insts executed
system.switch_cpus1.iew.exec_stores          30528693                       # Number of stores executed
system.switch_cpus1.iew.exec_swp                    0                       # number of swp insts executed
system.switch_cpus1.iew.iewBlockCycles       22589692                       # Number of cycles IEW is blocking
system.switch_cpus1.iew.iewDispLoadInsts     77022374                       # Number of dispatched load instructions
system.switch_cpus1.iew.iewDispNonSpecInsts         2118                       # Number of dispatched non-speculative instructions
system.switch_cpus1.iew.iewDispSquashedInsts        14085                       # Number of squashed instructions skipped by dispatch
system.switch_cpus1.iew.iewDispStoreInsts     32697150                       # Number of dispatched store instructions
system.switch_cpus1.iew.iewDispatchedInsts    499942268                       # Number of instructions dispatched to IQ
system.switch_cpus1.iew.iewExecLoadInsts     77134907                       # Number of load instructions executed
system.switch_cpus1.iew.iewExecSquashedInsts      2039676                       # Number of squashed instructions skipped in execute
system.switch_cpus1.iew.iewExecutedInsts    490718196                       # Number of executed instructions
system.switch_cpus1.iew.iewIQFullEvents        168713                       # Number of times the IQ has become full, causing a stall
system.switch_cpus1.iew.iewIdleCycles               0                       # Number of cycles IEW is idle
system.switch_cpus1.iew.iewLSQFullEvents      6273838                       # Number of times the LSQ has become full, causing a stall
system.switch_cpus1.iew.iewSquashCycles        724361                       # Number of cycles IEW is squashing
system.switch_cpus1.iew.iewUnblockCycles      6493542                       # Number of cycles IEW is unblocking
system.switch_cpus1.iew.memOrderViolationEvents        10891                       # Number of memory order violations
system.switch_cpus1.iew.predictedNotTakenIncorrect       226560                       # Number of branches that were predicted not taken incorrectly
system.switch_cpus1.iew.predictedTakenIncorrect       392796                       # Number of branches that were predicted taken incorrectly
system.switch_cpus1.iew.wb_consumers        536411177                       # num instructions consuming a value
system.switch_cpus1.iew.wb_count            487322008                       # cumulative count of insts written-back
system.switch_cpus1.iew.wb_fanout            0.600164                       # average fanout of values written-back
system.switch_cpus1.iew.wb_producers        321934740                       # num instructions producing a value
system.switch_cpus1.iew.wb_rate              2.805080                       # insts written-back per cycle
system.switch_cpus1.iew.wb_sent             489208033                       # cumulative count of insts sent to commit
system.switch_cpus1.int_regfile_reads       419747265                       # number of integer regfile reads
system.switch_cpus1.int_regfile_writes      182793818                       # number of integer regfile writes
system.switch_cpus1.ipc                      1.437976                       # IPC: Instructions Per Cycle
system.switch_cpus1.ipc_total                1.437976                       # IPC: Total IPC of All Threads
system.switch_cpus1.iq.FU_type_0::No_OpClass      1570824      0.32%      0.32% # Type of FU issued
system.switch_cpus1.iq.FU_type_0::IntAlu    222806981     45.22%     45.54% # Type of FU issued
system.switch_cpus1.iq.FU_type_0::IntMult        11403      0.00%     45.54% # Type of FU issued
system.switch_cpus1.iq.FU_type_0::IntDiv            0      0.00%     45.54% # Type of FU issued
system.switch_cpus1.iq.FU_type_0::FloatAdd     68801717     13.96%     59.50% # Type of FU issued
system.switch_cpus1.iq.FU_type_0::FloatCmp            0      0.00%     59.50% # Type of FU issued
system.switch_cpus1.iq.FU_type_0::FloatCvt            0      0.00%     59.50% # Type of FU issued
system.switch_cpus1.iq.FU_type_0::FloatMult            0      0.00%     59.50% # Type of FU issued
system.switch_cpus1.iq.FU_type_0::FloatMultAcc            0      0.00%     59.50% # Type of FU issued
system.switch_cpus1.iq.FU_type_0::FloatDiv            0      0.00%     59.50% # Type of FU issued
system.switch_cpus1.iq.FU_type_0::FloatMisc            0      0.00%     59.50% # Type of FU issued
system.switch_cpus1.iq.FU_type_0::FloatSqrt            0      0.00%     59.50% # Type of FU issued
system.switch_cpus1.iq.FU_type_0::SimdAdd            0      0.00%     59.50% # Type of FU issued
system.switch_cpus1.iq.FU_type_0::SimdAddAcc            0      0.00%     59.50% # Type of FU issued
system.switch_cpus1.iq.FU_type_0::SimdAlu      9242517      1.88%     61.38% # Type of FU issued
system.switch_cpus1.iq.FU_type_0::SimdCmp            0      0.00%     61.38% # Type of FU issued
system.switch_cpus1.iq.FU_type_0::SimdCvt            0      0.00%     61.38% # Type of FU issued
system.switch_cpus1.iq.FU_type_0::SimdMisc      5715461      1.16%     62.54% # Type of FU issued
system.switch_cpus1.iq.FU_type_0::SimdMult            0      0.00%     62.54% # Type of FU issued
system.switch_cpus1.iq.FU_type_0::SimdMultAcc            0      0.00%     62.54% # Type of FU issued
system.switch_cpus1.iq.FU_type_0::SimdShift            0      0.00%     62.54% # Type of FU issued
system.switch_cpus1.iq.FU_type_0::SimdShiftAcc            0      0.00%     62.54% # Type of FU issued
system.switch_cpus1.iq.FU_type_0::SimdDiv            0      0.00%     62.54% # Type of FU issued
system.switch_cpus1.iq.FU_type_0::SimdSqrt            0      0.00%     62.54% # Type of FU issued
system.switch_cpus1.iq.FU_type_0::SimdFloatAdd     23841317      4.84%     67.37% # Type of FU issued
system.switch_cpus1.iq.FU_type_0::SimdFloatAlu            0      0.00%     67.37% # Type of FU issued
system.switch_cpus1.iq.FU_type_0::SimdFloatCmp       652237      0.13%     67.51% # Type of FU issued
system.switch_cpus1.iq.FU_type_0::SimdFloatCvt     18089261      3.67%     71.18% # Type of FU issued
system.switch_cpus1.iq.FU_type_0::SimdFloatDiv      5720672      1.16%     72.34% # Type of FU issued
system.switch_cpus1.iq.FU_type_0::SimdFloatMisc            0      0.00%     72.34% # Type of FU issued
system.switch_cpus1.iq.FU_type_0::SimdFloatMult     27062487      5.49%     77.83% # Type of FU issued
system.switch_cpus1.iq.FU_type_0::SimdFloatMultAcc            0      0.00%     77.83% # Type of FU issued
system.switch_cpus1.iq.FU_type_0::SimdFloatSqrt      1016346      0.21%     78.04% # Type of FU issued
system.switch_cpus1.iq.FU_type_0::SimdReduceAdd            0      0.00%     78.04% # Type of FU issued
system.switch_cpus1.iq.FU_type_0::SimdReduceAlu            0      0.00%     78.04% # Type of FU issued
system.switch_cpus1.iq.FU_type_0::SimdReduceCmp            0      0.00%     78.04% # Type of FU issued
system.switch_cpus1.iq.FU_type_0::SimdFloatReduceAdd            0      0.00%     78.04% # Type of FU issued
system.switch_cpus1.iq.FU_type_0::SimdFloatReduceCmp            0      0.00%     78.04% # Type of FU issued
[...]
system.switch_cpus3.commit.numCommittedDist::1     13881938      8.26%     59.65% # Number of insts commited each cycle
system.switch_cpus3.commit.numCommittedDist::2      3434820      2.04%     61.69% # Number of insts commited each cycle
system.switch_cpus3.commit.numCommittedDist::3      7184288      4.28%     65.96% # Number of insts commited each cycle
system.switch_cpus3.commit.numCommittedDist::4      5752240      3.42%     69.39% # Number of insts commited each cycle
system.switch_cpus3.commit.numCommittedDist::5      3964755      2.36%     71.75% # Number of insts commited each cycle
system.switch_cpus3.commit.numCommittedDist::6      2809096      1.67%     73.42% # Number of insts commited each cycle
system.switch_cpus3.commit.numCommittedDist::7      2908875      1.73%     75.15% # Number of insts commited each cycle
system.switch_cpus3.commit.numCommittedDist::8     41760590     24.85%    100.00% # Number of insts commited each cycle
system.switch_cpus3.commit.numCommittedDist::overflows            0      0.00%    100.00% # Number of insts commited each cycle
system.switch_cpus3.commit.numCommittedDist::min_value            0                       # Number of insts commited each cycle
system.switch_cpus3.commit.numCommittedDist::max_value            8                       # Number of insts commited each cycle
system.switch_cpus3.commit.numCommittedDist::total    168046194                       # Number of insts commited each cycle
system.switch_cpus3.commit.instsCommitted    250000000                       # Number of instructions committed
system.switch_cpus3.commit.opsCommitted     456438598                       # Number of ops (including micro ops) committed
system.switch_cpus3.commit.memRefs           95535532                       # Number of memory references committed
system.switch_cpus3.commit.loads             69324056                       # Number of loads committed
system.switch_cpus3.commit.amos                     0                       # Number of atomic instructions committed
system.switch_cpus3.commit.membars               1880                       # Number of memory barriers committed
system.switch_cpus3.commit.branches          33082923                       # Number of branches committed
system.switch_cpus3.commit.vector                   0                       # Number of committed Vector instructions.
system.switch_cpus3.commit.floating         253088912                       # Number of committed floating point instructions.
system.switch_cpus3.commit.integer          282469051                       # Number of committed integer instructions.
system.switch_cpus3.commit.functionCalls      1781692                       # Number of function calls committed.
system.switch_cpus3.commit.committedInstType_0::No_OpClass       157149      0.03%      0.03% # Class of committed instruction
system.switch_cpus3.commit.committedInstType_0::IntAlu    206294742     45.20%     45.23% # Class of committed instruction
system.switch_cpus3.commit.committedInstType_0::IntMult        10887      0.00%     45.23% # Class of committed instruction
system.switch_cpus3.commit.committedInstType_0::IntDiv            0      0.00%     45.23% # Class of committed instruction
system.switch_cpus3.commit.committedInstType_0::FloatAdd     65125111     14.27%     59.50% # Class of committed instruction
system.switch_cpus3.commit.committedInstType_0::FloatCmp            0      0.00%     59.50% # Class of committed instruction
system.switch_cpus3.commit.committedInstType_0::FloatCvt            0      0.00%     59.50% # Class of committed instruction
system.switch_cpus3.commit.committedInstType_0::FloatMult            0      0.00%     59.50% # Class of committed instruction
system.switch_cpus3.commit.committedInstType_0::FloatMultAcc            0      0.00%     59.50% # Class of committed instruction
system.switch_cpus3.commit.committedInstType_0::FloatDiv            0      0.00%     59.50% # Class of committed instruction
system.switch_cpus3.commit.committedInstType_0::FloatMisc            0      0.00%     59.50% # Class of committed instruction
system.switch_cpus3.commit.committedInstType_0::FloatSqrt            0      0.00%     59.50% # Class of committed instruction
system.switch_cpus3.commit.committedInstType_0::SimdAdd            0      0.00%     59.50% # Class of committed instruction
system.switch_cpus3.commit.committedInstType_0::SimdAddAcc            0      0.00%     59.50% # Class of committed instruction
system.switch_cpus3.commit.committedInstType_0::SimdAlu      8954656      1.96%     61.46% # Class of committed instruction
system.switch_cpus3.commit.committedInstType_0::SimdCmp            0      0.00%     61.46% # Class of committed instruction
system.switch_cpus3.commit.committedInstType_0::SimdCvt            0      0.00%     61.46% # Class of committed instruction
system.switch_cpus3.commit.committedInstType_0::SimdMisc      5666285      1.24%     62.70% # Class of committed instruction
system.switch_cpus3.commit.committedInstType_0::SimdMult            0      0.00%     62.70% # Class of committed instruction
system.switch_cpus3.commit.committedInstType_0::SimdMultAcc            0      0.00%     62.70% # Class of committed instruction
system.switch_cpus3.commit.committedInstType_0::SimdShift            0      0.00%     62.70% # Class of committed instruction
system.switch_cpus3.commit.committedInstType_0::SimdShiftAcc            0      0.00%     62.70% # Class of committed instruction
system.switch_cpus3.commit.committedInstType_0::SimdDiv            0      0.00%     62.70% # Class of committed instruction
system.switch_cpus3.commit.committedInstType_0::SimdSqrt            0      0.00%     62.70% # Class of committed instruction
system.switch_cpus3.commit.committedInstType_0::SimdFloatAdd     23220005      5.09%     67.79% # Class of committed instruction
system.switch_cpus3.commit.committedInstType_0::SimdFloatAlu            0      0.00%     67.79% # Class of committed instruction
system.switch_cpus3.commit.committedInstType_0::SimdFloatCmp       645181      0.14%     67.93% # Class of committed instruction
system.switch_cpus3.commit.committedInstType_0::SimdFloatCvt     17698310      3.88%     71.81% # Class of committed instruction
system.switch_cpus3.commit.committedInstType_0::SimdFloatDiv      5533646      1.21%     73.02% # Class of committed instruction
system.switch_cpus3.commit.committedInstType_0::SimdFloatMisc            0      0.00%     73.02% # Class of committed instruction
system.switch_cpus3.commit.committedInstType_0::SimdFloatMult     26610445      5.83%     78.85% # Class of committed instruction
system.switch_cpus3.commit.committedInstType_0::SimdFloatMultAcc            0      0.00%     78.85% # Class of committed instruction
system.switch_cpus3.commit.committedInstType_0::SimdFloatSqrt       986649      0.22%     79.07% # Class of committed instruction
system.switch_cpus3.commit.committedInstType_0::SimdReduceAdd            0      0.00%     79.07% # Class of committed instruction
system.switch_cpus3.commit.committedInstType_0::SimdReduceAlu            0      0.00%     79.07% # Class of committed instruction
system.switch_cpus3.commit.committedInstType_0::SimdReduceCmp            0      0.00%     79.07% # Class of committed instruction
system.switch_cpus3.commit.committedInstType_0::SimdFloatReduceAdd            0      0.00%     79.07% # Class of committed instruction
system.switch_cpus3.commit.committedInstType_0::SimdFloatReduceCmp            0      0.00%     79.07% # Class of committed instruction
system.switch_cpus3.commit.committedInstType_0::SimdAes            0      0.00%     79.07% # Class of committed instruction
system.switch_cpus3.commit.committedInstType_0::SimdAesMix            0      0.00%     79.07% # Class of committed instruction
system.switch_cpus3.commit.committedInstType_0::SimdSha1Hash            0      0.00%     79.07% # Class of committed instruction
system.switch_cpus3.commit.committedInstType_0::SimdSha1Hash2            0      0.00%     79.07% # Class of committed instruction
system.switch_cpus3.commit.committedInstType_0::SimdSha256Hash            0      0.00%     79.07% # Class of committed instruction
system.switch_cpus3.commit.committedInstType_0::SimdSha256Hash2            0      0.00%     79.07% # Class of committed instruction
system.switch_cpus3.commit.committedInstType_0::SimdShaSigma2            0      0.00%     79.07% # Class of committed instruction
system.switch_cpus3.commit.committedInstType_0::SimdShaSigma3            0      0.00%     79.07% # Class of committed instruction
system.switch_cpus3.commit.committedInstType_0::SimdPredAlu            0      0.00%     79.07% # Class of committed instruction
system.switch_cpus3.commit.committedInstType_0::MemRead     15185787      3.33%     82.40% # Class of committed instruction
system.switch_cpus3.commit.committedInstType_0::MemWrite      6521339      1.43%     83.83% # Class of committed instruction
system.switch_cpus3.commit.committedInstType_0::FloatMemRead     54138269     11.86%     95.69% # Class of committed instruction
system.switch_cpus3.commit.committedInstType_0::FloatMemWrite     19690137      4.31%    100.00% # Class of committed instruction
system.switch_cpus3.commit.committedInstType_0::IprAccess            0      0.00%    100.00% # Class of committed instruction
system.switch_cpus3.commit.committedInstType_0::InstPrefetch            0      0.00%    100.00% # Class of committed instruction
system.switch_cpus3.commit.committedInstType_0::total    456438598                       # Class of committed instruction
system.switch_cpus3.commit.commitEligibleSamples     41760590                       # number cycles where commit BW limit reached
system.switch_cpus3.decode.idleCycles         8324420                       # Number of cycles decode is idle
system.switch_cpus3.decode.blockedCycles     91793064                       # Number of cycles decode is blocked
system.switch_cpus3.decode.runCycles         60048129                       # Number of cycles decode is running
system.switch_cpus3.decode.unblockCycles     12364602                       # Number of cycles decode is unblocking
system.switch_cpus3.decode.squashCycles        724283                       # Number of cycles decode is squashing
system.switch_cpus3.decode.branchResolved     17539694                       # Number of times decode resolved a  branch
system.switch_cpus3.decode.branchMispred         3950                       # Number of times decode detected a branch misprediction
system.switch_cpus3.decode.decodedInsts     511929538                       # Number of instructions handled by decode
system.switch_cpus3.decode.squashedInsts        20350                       # Number of squashed instructions handled by decode
system.switch_cpus3.dtb.rdAccesses           77873766                       # TLB accesses on read requests
system.switch_cpus3.dtb.wrAccesses           30631891                       # TLB accesses on write requests
system.switch_cpus3.dtb.rdMisses                24752                       # TLB misses on read requests
system.switch_cpus3.dtb.wrMisses                11400                       # TLB misses on write requests
system.switch_cpus3.dtb.walker.power_state.pwrStateResidencyTicks::UNDEFINED 18204165928350                       # Cumulative time (in ticks) in various power states
system.switch_cpus3.fetch.icacheStallCycles      1203998                       # Number of cycles fetch is stalled on an Icache miss
system.switch_cpus3.fetch.insts             284939018                       # Number of instructions fetch has processed
system.switch_cpus3.fetch.branches           38202405                       # Number of branches that fetch encountered
system.switch_cpus3.fetch.predictedBranches     22095071                       # Number of branches that fetch has predicted taken
system.switch_cpus3.fetch.cycles            171301270                       # Number of cycles fetch has run and was not squashing or blocked
system.switch_cpus3.fetch.squashCycles        1456332                       # Number of cycles fetch has spent squashing
system.switch_cpus3.fetch.tlbCycles                 1                       # Number of cycles fetch has spent waiting for tlb
system.switch_cpus3.fetch.miscStallCycles         2759                       # Number of cycles fetch has spent waiting on interrupts,or bad addresses, or out of MSHRs
system.switch_cpus3.fetch.pendingTrapStallCycles        18310                       # Number of stall cycles due to pending traps
system.switch_cpus3.fetch.cacheLines         36824622                       # Number of cache lines fetched
system.switch_cpus3.fetch.icacheSquashes         9937                       # Number of outstanding Icache misses that were squashed
system.switch_cpus3.fetch.nisnDist::samples    173254504                       # Number of instructions fetched each cycle (Total)
system.switch_cpus3.fetch.nisnDist::mean     3.029739                       # Number of instructions fetched each cycle (Total)
system.switch_cpus3.fetch.nisnDist::stdev     3.488693                       # Number of instructions fetched each cycle (Total)
system.switch_cpus3.fetch.nisnDist::underflows            0      0.00%      0.00% # Number of instructions fetched each cycle (Total)
system.switch_cpus3.fetch.nisnDist::0        87114151     50.28%     50.28% # Number of instructions fetched each cycle (Total)
system.switch_cpus3.fetch.nisnDist::1         5301687      3.06%     53.34% # Number of instructions fetched each cycle (Total)
system.switch_cpus3.fetch.nisnDist::2         4946076      2.85%     56.20% # Number of instructions fetched each cycle (Total)
system.switch_cpus3.fetch.nisnDist::3         8469457      4.89%     61.08% # Number of instructions fetched each cycle (Total)
system.switch_cpus3.fetch.nisnDist::4         4977952      2.87%     63.96% # Number of instructions fetched each cycle (Total)
system.switch_cpus3.fetch.nisnDist::5         6440623      3.72%     67.67% # Number of instructions fetched each cycle (Total)
system.switch_cpus3.fetch.nisnDist::6         5167332      2.98%     70.66% # Number of instructions fetched each cycle (Total)
system.switch_cpus3.fetch.nisnDist::7         5503002      3.18%     73.83% # Number of instructions fetched each cycle (Total)
system.switch_cpus3.fetch.nisnDist::8        45334224     26.17%    100.00% # Number of instructions fetched each cycle (Total)
system.switch_cpus3.fetch.nisnDist::overflows            0      0.00%    100.00% # Number of instructions fetched each cycle (Total)
system.switch_cpus3.fetch.nisnDist::min_value            0                       # Number of instructions fetched each cycle (Total)
system.switch_cpus3.fetch.nisnDist::max_value            8                       # Number of instructions fetched each cycle (Total)
system.switch_cpus3.fetch.nisnDist::total    173254504                       # Number of instructions fetched each cycle (Total)
system.switch_cpus3.fetch.branchRate         0.219897                       # Number of branch fetches per cycle
system.switch_cpus3.fetch.rate               1.640141                       # Number of inst fetches per cycle
system.switch_cpus3.itb.rdAccesses                  0                       # TLB accesses on read requests
system.switch_cpus3.itb.wrAccesses           36827665                       # TLB accesses on write requests
system.switch_cpus3.itb.rdMisses                    0                       # TLB misses on read requests
system.switch_cpus3.itb.wrMisses                 3113                       # TLB misses on write requests
system.switch_cpus3.itb.walker.power_state.pwrStateResidencyTicks::UNDEFINED 18204165928350                       # Cumulative time (in ticks) in various power states
system.switch_cpus3.lsq0.forwLoads            5321144                       # Number of loads that had data forwarded from stores
system.switch_cpus3.lsq0.squashedLoads        7741322                       # Number of loads squashed
system.switch_cpus3.lsq0.ignoredResponses         1596                       # Number of memory responses ignored because the instruction is squashed
system.switch_cpus3.lsq0.memOrderViolation        10716                       # Number of memory ordering violations
system.switch_cpus3.lsq0.squashedStores       6549085                       # Number of stores squashed
system.switch_cpus3.lsq0.rescheduledLoads      1005180                       # Number of loads that were rescheduled
system.switch_cpus3.lsq0.blockedByCache          8989                       # Number of times an access to memory failed due to the cache being blocked
system.switch_cpus3.power_state.pwrStateResidencyTicks::OFF  57851551206                       # Cumulative time (in ticks) in various power states
system.switch_cpus3.rename.squashCycles        724283                       # Number of cycles rename is squashing
system.switch_cpus3.rename.idleCycles        13178903                       # Number of cycles rename is idle
system.switch_cpus3.rename.blockCycles       39394897                       # Number of cycles rename is blocking
system.switch_cpus3.rename.serializeStallCycles            0                       # count of cycles rename stalledfor serializing inst
system.switch_cpus3.rename.runCycles         67138202                       # Number of cycles rename is running
system.switch_cpus3.rename.unblockCycles     52818213                       # Number of cycles rename is unblocking
system.switch_cpus3.rename.renamedInsts     506844528                       # Number of instructions processed by rename
system.switch_cpus3.rename.ROBFullEvents      1546877                       # Number of times rename has blocked due to ROB full
system.switch_cpus3.rename.IQFullEvents      12196815                       # Number of times rename has blocked due to IQ full
system.switch_cpus3.rename.LQFullEvents      14113503                       # Number of times rename has blocked due to LQ full
system.switch_cpus3.rename.SQFullEvents      23897660                       # Number of times rename has blocked due to SQ full
system.switch_cpus3.rename.renamedOperands    535979500                       # Number of destination operands rename has renamed
system.switch_cpus3.rename.lookups         1164023224                       # Number of register rename lookups that rename has made
system.switch_cpus3.rename.intLookups       435024720                       # Number of integer rename lookups
system.switch_cpus3.rename.fpLookups        323070443                       # Number of floating rename lookups
system.switch_cpus3.rename.committedMaps    486355473                       # Number of HB maps that are committed
system.switch_cpus3.rename.undoneMaps        49623893                       # Number of HB maps that are undone due to squashing
system.switch_cpus3.rename.serializing              0                       # count of serializing insts renamed
system.switch_cpus3.rename.tempSerializing            0                       # count of temporary serializing insts renamed
system.switch_cpus3.rename.skidInsts         55764258                       # count of insts added to the skid buffer
system.switch_cpus3.rob.reads               619530468                       # The number of ROB reads
system.switch_cpus3.rob.writes              995880508                       # The number of ROB writes
system.switch_cpus3.thread0.numInsts        250000000                       # Number of Instructions committed
system.switch_cpus3.thread0.numOps          456438598                       # Number of Ops committed
system.switch_cpus3.thread0.numMemRefs              0                       # Number of Memory References
system.voltage_domain.voltage                       1                       # Voltage in Volts

---------- End Simulation Statistics   ----------
