Command line:
./runscript_pride.sh mcf AE.BASELINE.4C 4 2017
Global frequency set at 1000000000000 ticks per second
DRAM config: RowsPerBank: 65536, BanksPerRank: 32, RanksPerChannel: 1
warn: Sockets disabled, not accepting gdb connections
warn: CoherentXBar system.cpu0.mmucache.mmubus has no snooping ports attached!
warn: CoherentXBar system.cpu1.mmucache.mmubus has no snooping ports attached!
warn: CoherentXBar system.cpu2.mmucache.mmubus has no snooping ports attached!
warn: CoherentXBar system.cpu3.mmucache.mmubus has no snooping ports attached!
warn: Checkpoints for file descriptors currently do not work.
warn: Checkpoints for file descriptors currently do not work.
warn: Checkpoints for file descriptors currently do not work.
warn: Checkpoints for file descriptors currently do not work.
gem5 Simulator System.  http://gem5.org
gem5 is copyrighted software; use the --copyright option for details.

gem5 version 20.1.0.5
gem5 compiled Jul 12 2024 12:42:38
gem5 started Jul 31 2024 03:21:18
gem5 executing on a07dda8b130c, pid 225654
command line: /home/user/PrIDE/performance/gem5/build/X86/gem5.opt --outdir=/home/user/PrIDE/performance/gem5/stats/pride_multiprogram_16GBmem_250Mn.SPEC2017.C4/AE.BASELINE.4C/mcf /home/user/PrIDE/performance/gem5/configs/example/se_rq_spec_config_multicore.py --redirects /lib64=/home/utils/gcc-6.2.0/lib64 --benchmark=mcf --benchmark_stdout=/home/user/PrIDE/performance/gem5/stats/pride_multiprogram_16GBmem_250Mn.SPEC2017.C4/AE.BASELINE.4C/mcf/mcf.out --benchmark_stderr=/home/user/PrIDE/performance/gem5/stats/pride_multiprogram_16GBmem_250Mn.SPEC2017.C4/AE.BASELINE.4C/mcf/mcf.err --spec-version=2017 --num-cpus=4 --mem-size=16GB --mem-type=DDR5_2400_32x4 --mem-ranks=1 --mem-channels=1 --checkpoint-dir=/home/user/PrIDE/performance/gem5/cpts-DDR5/multiprogram_16GBmem_25Bn.SPEC2017.C4/mcf-1-ref-x86 --checkpoint-restore=25000000000 --at-instruction --cpu-type DerivO3CPU --caches --l2cache --l1d_size=32kB --l1i_size=32kB --l2_size=256kB --l3_size=4MB --l1d_assoc=8 --l1i_assoc=8 --l2_assoc=16 --l3_assoc=16 --cpu-clock=3GHz --sys-clock=3GHz --maxinsts=250000000 --prog-interval=300Hz

info: Standard input is not a terminal, disabling listeners.
Benchmark- 0   mcf
Selected benchmark
--> mcf
CMD: ['/opt/spec2017/benchspec/CPU/505.mcf_r/run/run_base_refrate_gem5_se-m64.0000/mcf_r_base.gem5_se-m64', '/opt/spec2017/benchspec/CPU/505.mcf_r/run/run_base_refrate_gem5_se-m64.0000/inp.in']
CWD: /opt/spec2017/benchspec/CPU/505.mcf_r/run/run_base_refrate_gem5_se-m64.0000/
Process stdout file: /home/user/PrIDE/performance/gem5/stats/pride_multiprogram_16GBmem_250Mn.SPEC2017.C4/AE.BASELINE.4C/mcf/mcf.out_0
Process stderr file: /home/user/PrIDE/performance/gem5/stats/pride_multiprogram_16GBmem_250Mn.SPEC2017.C4/AE.BASELINE.4C/mcf/mcf.err_0
Benchmark- 1   mcf
Selected benchmark
--> mcf
CMD: ['/opt/spec2017/benchspec/CPU/505.mcf_r/run/run_base_refrate_gem5_se-m64.0000/mcf_r_base.gem5_se-m64', '/opt/spec2017/benchspec/CPU/505.mcf_r/run/run_base_refrate_gem5_se-m64.0000/inp.in']
CWD: /opt/spec2017/benchspec/CPU/505.mcf_r/run/run_base_refrate_gem5_se-m64.0000/
Process stdout file: /home/user/PrIDE/performance/gem5/stats/pride_multiprogram_16GBmem_250Mn.SPEC2017.C4/AE.BASELINE.4C/mcf/mcf.out_1
Process stderr file: /home/user/PrIDE/performance/gem5/stats/pride_multiprogram_16GBmem_250Mn.SPEC2017.C4/AE.BASELINE.4C/mcf/mcf.err_1
Benchmark- 2   mcf
Selected benchmark
--> mcf
CMD: ['/opt/spec2017/benchspec/CPU/505.mcf_r/run/run_base_refrate_gem5_se-m64.0000/mcf_r_base.gem5_se-m64', '/opt/spec2017/benchspec/CPU/505.mcf_r/run/run_base_refrate_gem5_se-m64.0000/inp.in']
CWD: /opt/spec2017/benchspec/CPU/505.mcf_r/run/run_base_refrate_gem5_se-m64.0000/
Process stdout file: /home/user/PrIDE/performance/gem5/stats/pride_multiprogram_16GBmem_250Mn.SPEC2017.C4/AE.BASELINE.4C/mcf/mcf.out_2
Process stderr file: /home/user/PrIDE/performance/gem5/stats/pride_multiprogram_16GBmem_250Mn.SPEC2017.C4/AE.BASELINE.4C/mcf/mcf.err_2
Benchmark- 3   mcf
Selected benchmark
--> mcf
CMD: ['/opt/spec2017/benchspec/CPU/505.mcf_r/run/run_base_refrate_gem5_se-m64.0000/mcf_r_base.gem5_se-m64', '/opt/spec2017/benchspec/CPU/505.mcf_r/run/run_base_refrate_gem5_se-m64.0000/inp.in']
CWD: /opt/spec2017/benchspec/CPU/505.mcf_r/run/run_base_refrate_gem5_se-m64.0000/
Process stdout file: /home/user/PrIDE/performance/gem5/stats/pride_multiprogram_16GBmem_250Mn.SPEC2017.C4/AE.BASELINE.4C/mcf/mcf.out_3
Process stderr file: /home/user/PrIDE/performance/gem5/stats/pride_multiprogram_16GBmem_250Mn.SPEC2017.C4/AE.BASELINE.4C/mcf/mcf.err_3
Workload-0: 
['/opt/spec2017/benchspec/CPU/505.mcf_r/run/run_base_refrate_gem5_se-m64.0000/mcf_r_base.gem5_se-m64', '/opt/spec2017/benchspec/CPU/505.mcf_r/run/run_base_refrate_gem5_se-m64.0000/inp.in']
Workload-1: 
['/opt/spec2017/benchspec/CPU/505.mcf_r/run/run_base_refrate_gem5_se-m64.0000/mcf_r_base.gem5_se-m64', '/opt/spec2017/benchspec/CPU/505.mcf_r/run/run_base_refrate_gem5_se-m64.0000/inp.in']
Workload-2: 
['/opt/spec2017/benchspec/CPU/505.mcf_r/run/run_base_refrate_gem5_se-m64.0000/mcf_r_base.gem5_se-m64', '/opt/spec2017/benchspec/CPU/505.mcf_r/run/run_base_refrate_gem5_se-m64.0000/inp.in']
Workload-3: 
['/opt/spec2017/benchspec/CPU/505.mcf_r/run/run_base_refrate_gem5_se-m64.0000/mcf_r_base.gem5_se-m64', '/opt/spec2017/benchspec/CPU/505.mcf_r/run/run_base_refrate_gem5_se-m64.0000/inp.in']
defense_enable:  False  detector:  MG  mitigation:  RRS  threshold:  800
mg_entries:  1700
rrs_tuples:  3400 rrs_swap_delay:  2740ns rit_acc_delay:  1.25ns
Switch at curTick count:10000
warn: membus.master is deprecated. `master` is now called `mem_side_ports`
warn: No dot file generated. Please install pydot to generate the dot file and pdf.
info: Entering event queue @ 16815150905778.  Starting simulation...
warn: PowerState: Already in the requested power state, request ignored
Switched CPUS @ tick 16815150915778
switching cpus
**** REAL SIMULATION ****
info: Entering event queue @ 16815150915778.  Starting simulation...
16818484239111: Event_285: system.switch_cpus3 progress event, total committed:9359476, progress insts committed: 9359476, IPC: 0.935012
16818484239111: Event_284: system.switch_cpus2 progress event, total committed:9393540, progress insts committed: 9393540, IPC: 0.938415
16818484239111: Event_283: system.switch_cpus1 progress event, total committed:9374958, progress insts committed: 9374958, IPC: 0.936558
16818484239111: Event_282: system.switch_cpus0 progress event, total committed:9393869, progress insts committed: 9393869, IPC: 0.938448
16821817572444: Event_282: system.switch_cpus0 progress event, total committed:19374171, progress insts committed: 9980302, IPC: 0.997032
16821817572444: Event_283: system.switch_cpus1 progress event, total committed:19326764, progress insts committed: 9951806, IPC: 0.994185
16821817572444: Event_284: system.switch_cpus2 progress event, total committed:19388032, progress insts committed: 9994492, IPC: 00.99845
16821817572444: Event_285: system.switch_cpus3 progress event, total committed:19311899, progress insts committed: 9952423, IPC: 0.994247
16825150905777: Event_285: system.switch_cpus3 progress event, total committed:29403822, progress insts committed: 10091923, IPC: 01.00818
16825150905777: Event_284: system.switch_cpus2 progress event, total committed:29564769, progress insts committed: 10176737, IPC: 01.01666
16825150905777: Event_283: system.switch_cpus1 progress event, total committed:29418699, progress insts committed: 10091935, IPC: 01.00818
16825150905777: Event_282: system.switch_cpus0 progress event, total committed:29488633, progress insts committed: 10114462, IPC: 01.01043
16828484239110: Event_282: system.switch_cpus0 progress event, total committed:39775560, progress insts committed: 10286927, IPC: 01.02766
16828484239110: Event_283: system.switch_cpus1 progress event, total committed:39653329, progress insts committed: 10234630, IPC: 01.02244
16828484239110: Event_284: system.switch_cpus2 progress event, total committed:40019072, progress insts committed: 10454303, IPC: 01.04438
16828484239110: Event_285: system.switch_cpus3 progress event, total committed:39646901, progress insts committed: 10243079, IPC: 01.02328
16831817572443: Event_285: system.switch_cpus3 progress event, total committed:50095314, progress insts committed: 10448413, IPC: 001.0438
16831817572443: Event_284: system.switch_cpus2 progress event, total committed:50921064, progress insts committed: 10901992, IPC: 01.08911
16831817572443: Event_283: system.switch_cpus1 progress event, total committed:50089968, progress insts committed: 10436639, IPC: 01.04262
16831817572443: Event_282: system.switch_cpus0 progress event, total committed:50233175, progress insts committed: 10457615, IPC: 01.04472
16835150905776: Event_282: system.switch_cpus0 progress event, total committed:60985598, progress insts committed: 10752423, IPC: 01.07417
16835150905776: Event_283: system.switch_cpus1 progress event, total committed:60701909, progress insts committed: 10611941, IPC: 01.06013
16835150905776: Event_284: system.switch_cpus2 progress event, total committed:61577657, progress insts committed: 10656593, IPC: 01.06459
16835150905776: Event_285: system.switch_cpus3 progress event, total committed:60726665, progress insts committed: 10631351, IPC: 01.06207
16838484239109: Event_285: system.switch_cpus3 progress event, total committed:71229299, progress insts committed: 10502634, IPC: 01.04921
16838484239109: Event_284: system.switch_cpus2 progress event, total committed:72634507, progress insts committed: 11056850, IPC: 01.10458
16838484239109: Event_283: system.switch_cpus1 progress event, total committed:71146341, progress insts committed: 10444432, IPC: 001.0434
16838484239109: Event_282: system.switch_cpus0 progress event, total committed:71631512, progress insts committed: 10645914, IPC: 01.06353
16841817572442: Event_282: system.switch_cpus0 progress event, total committed:82698692, progress insts committed: 11067180, IPC: 01.10561
16841817572442: Event_283: system.switch_cpus1 progress event, total committed:81862036, progress insts committed: 10715695, IPC: 001.0705
16841817572442: Event_284: system.switch_cpus2 progress event, total committed:83405377, progress insts committed: 10770870, IPC: 01.07601
16841817572442: Event_285: system.switch_cpus3 progress event, total committed:81882317, progress insts committed: 10653018, IPC: 01.06424
16845150905775: Event_285: system.switch_cpus3 progress event, total committed:92167773, progress insts committed: 10285456, IPC: 01.02752
16845150905775: Event_284: system.switch_cpus2 progress event, total committed:93854967, progress insts committed: 10449590, IPC: 01.04391
16845150905775: Event_283: system.switch_cpus1 progress event, total committed:92120818, progress insts committed: 10258782, IPC: 01.02485
16845150905775: Event_282: system.switch_cpus0 progress event, total committed:93611893, progress insts committed: 10913201, IPC: 01.09023
16848484239108: Event_282: system.switch_cpus0 progress event, total committed:104155710, progress insts committed: 10543817, IPC: 01.05333
16848484239108: Event_283: system.switch_cpus1 progress event, total committed:102482751, progress insts committed: 10361933, IPC: 01.03516
16848484239108: Event_284: system.switch_cpus2 progress event, total committed:104170350, progress insts committed: 10315383, IPC: 01.03051
16848484239108: Event_285: system.switch_cpus3 progress event, total committed:102719619, progress insts committed: 10551846, IPC: 01.05413
16851817572441: Event_285: system.switch_cpus3 progress event, total committed:114390729, progress insts committed: 11671110, IPC: 01.16594
16851817572441: Event_284: system.switch_cpus2 progress event, total committed:114480991, progress insts committed: 10310641, IPC: 01.03003
16851817572441: Event_283: system.switch_cpus1 progress event, total committed:112731103, progress insts committed: 10248352, IPC: 01.02381
16851817572441: Event_282: system.switch_cpus0 progress event, total committed:114463917, progress insts committed: 10308207, IPC: 01.02979
16855150905774: Event_282: system.switch_cpus0 progress event, total committed:124727867, progress insts committed: 10263950, IPC: 01.02537
16855150905774: Event_283: system.switch_cpus1 progress event, total committed:123159207, progress insts committed: 10428104, IPC: 01.04177
16855150905774: Event_284: system.switch_cpus2 progress event, total committed:124750052, progress insts committed: 10269061, IPC: 01.02588
16855150905774: Event_285: system.switch_cpus3 progress event, total committed:124701853, progress insts committed: 10311124, IPC: 01.03008
16858484239107: Event_285: system.switch_cpus3 progress event, total committed:130026740, progress insts committed: 5324887, IPC: 0.531956
16858484239107: Event_284: system.switch_cpus2 progress event, total committed:130037893, progress insts committed: 5287841, IPC: 0.528255
16858484239107: Event_283: system.switch_cpus1 progress event, total committed:129961846, progress insts committed: 6802639, IPC: 0.679584
16858484239107: Event_282: system.switch_cpus0 progress event, total committed:130031462, progress insts committed: 5303595, IPC: 0.529829
16861817572440: Event_282: system.switch_cpus0 progress event, total committed:134200831, progress insts committed: 4169369, IPC: 00.41652
16861817572440: Event_283: system.switch_cpus1 progress event, total committed:132307515, progress insts committed: 2345669, IPC: 0.234332
16861817572440: Event_284: system.switch_cpus2 progress event, total committed:134239158, progress insts committed: 4201265, IPC: 0.419706
16861817572440: Event_285: system.switch_cpus3 progress event, total committed:134187691, progress insts committed: 4160951, IPC: 0.415679
16865150905773: Event_285: system.switch_cpus3 progress event, total committed:144967054, progress insts committed: 10779363, IPC: 01.07686
16865150905773: Event_284: system.switch_cpus2 progress event, total committed:145269952, progress insts committed: 11030794, IPC: 01.10198
16865150905773: Event_283: system.switch_cpus1 progress event, total committed:144162431, progress insts committed: 11854916, IPC: 01.18431
16865150905773: Event_282: system.switch_cpus0 progress event, total committed:144991966, progress insts committed: 10791135, IPC: 01.07803
16868484239106: Event_282: system.switch_cpus0 progress event, total committed:156093535, progress insts committed: 11101569, IPC: 01.10905
16868484239106: Event_283: system.switch_cpus1 progress event, total committed:156006243, progress insts committed: 11843812, IPC: 001.1832
16868484239106: Event_284: system.switch_cpus2 progress event, total committed:156165288, progress insts committed: 10895336, IPC: 01.08844
16868484239106: Event_285: system.switch_cpus3 progress event, total committed:156091794, progress insts committed: 11124740, IPC: 01.11136
16871817572439: Event_285: system.switch_cpus3 progress event, total committed:167356670, progress insts committed: 11264876, IPC: 01.12536
16871817572439: Event_284: system.switch_cpus2 progress event, total committed:168021203, progress insts committed: 11855915, IPC: 01.18441
16871817572439: Event_283: system.switch_cpus1 progress event, total committed:167000696, progress insts committed: 10994453, IPC: 01.09835
16871817572439: Event_282: system.switch_cpus0 progress event, total committed:167341066, progress insts committed: 11247531, IPC: 01.12363
16875150905772: Event_282: system.switch_cpus0 progress event, total committed:178074509, progress insts committed: 10733443, IPC: 01.07227
16875150905772: Event_283: system.switch_cpus1 progress event, total committed:178008161, progress insts committed: 11007465, IPC: 01.09965
16875150905772: Event_284: system.switch_cpus2 progress event, total committed:179926903, progress insts committed: 11905700, IPC: 01.18938
16875150905772: Event_285: system.switch_cpus3 progress event, total committed:178163142, progress insts committed: 10806472, IPC: 01.07957
16878484239105: Event_285: system.switch_cpus3 progress event, total committed:189832922, progress insts committed: 11669780, IPC: 01.16581
16878484239105: Event_284: system.switch_cpus2 progress event, total committed:191243865, progress insts committed: 11316962, IPC: 01.13056
16878484239105: Event_283: system.switch_cpus1 progress event, total committed:189418168, progress insts committed: 11410007, IPC: 01.13986
16878484239105: Event_282: system.switch_cpus0 progress event, total committed:189800536, progress insts committed: 11726027, IPC: 01.17143
16881817572438: Event_282: system.switch_cpus0 progress event, total committed:200604615, progress insts committed: 10804079, IPC: 01.07933
16881817572438: Event_283: system.switch_cpus1 progress event, total committed:200114397, progress insts committed: 10696229, IPC: 01.06855
16881817572438: Event_284: system.switch_cpus2 progress event, total committed:202039060, progress insts committed: 10795195, IPC: 01.07844
16881817572438: Event_285: system.switch_cpus3 progress event, total committed:201323614, progress insts committed: 11490692, IPC: 01.14792
16885150905771: Event_285: system.switch_cpus3 progress event, total committed:213213517, progress insts committed: 11889903, IPC: 001.1878
16885150905771: Event_284: system.switch_cpus2 progress event, total committed:213715520, progress insts committed: 11676460, IPC: 01.16648
16885150905771: Event_283: system.switch_cpus1 progress event, total committed:211725419, progress insts committed: 11611022, IPC: 01.15994
16885150905771: Event_282: system.switch_cpus0 progress event, total committed:211906100, progress insts committed: 11301485, IPC: 01.12902
16888484239104: Event_282: system.switch_cpus0 progress event, total committed:223687358, progress insts committed: 11781258, IPC: 01.17695
16888484239104: Event_283: system.switch_cpus1 progress event, total committed:223202538, progress insts committed: 11477119, IPC: 01.14656
16888484239104: Event_284: system.switch_cpus2 progress event, total committed:224991409, progress insts committed: 11275889, IPC: 01.12646
16888484239104: Event_285: system.switch_cpus3 progress event, total committed:224460340, progress insts committed: 11246823, IPC: 01.12356
16891817572437: Event_285: system.switch_cpus3 progress event, total committed:235568310, progress insts committed: 11107970, IPC: 01.10969
16891817572437: Event_284: system.switch_cpus2 progress event, total committed:235927896, progress insts committed: 10936487, IPC: 01.09256
16891817572437: Event_283: system.switch_cpus1 progress event, total committed:234286364, progress insts committed: 11083826, IPC: 01.10727
16891817572437: Event_282: system.switch_cpus0 progress event, total committed:235513479, progress insts committed: 11826121, IPC: 01.18143
16895150905770: Event_282: system.switch_cpus0 progress event, total committed:247215142, progress insts committed: 11701663, IPC: 0001.169
16895150905770: Event_283: system.switch_cpus1 progress event, total committed:245760848, progress insts committed: 11474484, IPC: 001.1463
16895150905770: Event_284: system.switch_cpus2 progress event, total committed:247424550, progress insts committed: 11496654, IPC: 01.14852
16895150905770: Event_285: system.switch_cpus3 progress event, total committed:247341261, progress insts committed: 11772951, IPC: 01.17612
16898484239103: Event_285: system.switch_cpus3 progress event, total committed:258505462, progress insts committed: 11164201, IPC: 001.1153
16898484239103: Event_284: system.switch_cpus2 progress event, total committed:259301455, progress insts committed: 11876905, IPC: 001.1865
16898484239103: Event_283: system.switch_cpus1 progress event, total committed:257563608, progress insts committed: 11802760, IPC: 001.1791
16898484239103: Event_282: system.switch_cpus0 progress event, total committed:258382815, progress insts committed: 11167673, IPC: 01.11565
16901817572436: Event_282: system.switch_cpus0 progress event, total committed:269404321, progress insts committed: 11021506, IPC: 01.10105
16901817572436: Event_283: system.switch_cpus1 progress event, total committed:269329027, progress insts committed: 11765419, IPC: 01.17537
16901817572436: Event_284: system.switch_cpus2 progress event, total committed:270913939, progress insts committed: 11612484, IPC: 01.16009
16901817572436: Event_285: system.switch_cpus3 progress event, total committed:269530318, progress insts committed: 11024856, IPC: 01.10138
16905150905769: Event_285: system.switch_cpus3 progress event, total committed:281230601, progress insts committed: 11700283, IPC: 01.16886
16905150905769: Event_284: system.switch_cpus2 progress event, total committed:282432329, progress insts committed: 11518390, IPC: 01.15069
16905150905769: Event_283: system.switch_cpus1 progress event, total committed:280844033, progress insts committed: 11515006, IPC: 01.15035
16905150905769: Event_282: system.switch_cpus0 progress event, total committed:281184116, progress insts committed: 11779795, IPC: 001.1768
16908484239102: Event_282: system.switch_cpus0 progress event, total committed:292615273, progress insts committed: 11431157, IPC: 01.14197
16908484239102: Event_283: system.switch_cpus1 progress event, total committed:291900093, progress insts committed: 11056060, IPC: 001.1045
16908484239102: Event_284: system.switch_cpus2 progress event, total committed:293709067, progress insts committed: 11276738, IPC: 01.12655
16908484239102: Event_285: system.switch_cpus3 progress event, total committed:293084437, progress insts committed: 11853836, IPC: 001.1842
16911817572435: Event_285: system.switch_cpus3 progress event, total committed:304940207, progress insts committed: 11855770, IPC: 01.18439
16911817572435: Event_284: system.switch_cpus2 progress event, total committed:305055702, progress insts committed: 11346635, IPC: 01.13353
16911817572435: Event_283: system.switch_cpus1 progress event, total committed:303077248, progress insts committed: 11177155, IPC: 001.1166
16911817572435: Event_282: system.switch_cpus0 progress event, total committed:304056895, progress insts committed: 11441622, IPC: 01.14302
16915150905768: Event_282: system.switch_cpus0 progress event, total committed:315595529, progress insts committed: 11538634, IPC: 01.15271
16915150905768: Event_283: system.switch_cpus1 progress event, total committed:314904442, progress insts committed: 11827194, IPC: 01.18154
16915150905768: Event_284: system.switch_cpus2 progress event, total committed:316847198, progress insts committed: 11791496, IPC: 01.17797
16915150905768: Event_285: system.switch_cpus3 progress event, total committed:316279777, progress insts committed: 11339570, IPC: 01.13282
16918484239101: Event_285: system.switch_cpus3 progress event, total committed:327476820, progress insts committed: 11197043, IPC: 01.11858
16918484239101: Event_284: system.switch_cpus2 progress event, total committed:328158659, progress insts committed: 11311461, IPC: 01.13001
16918484239101: Event_283: system.switch_cpus1 progress event, total committed:326713657, progress insts committed: 11809215, IPC: 01.17974
16918484239101: Event_282: system.switch_cpus0 progress event, total committed:327094341, progress insts committed: 11498812, IPC: 01.14873
16921817572434: Event_282: system.switch_cpus0 progress event, total committed:338721760, progress insts committed: 11627419, IPC: 01.16158
16921817572434: Event_283: system.switch_cpus1 progress event, total committed:338224855, progress insts committed: 11511198, IPC: 01.14997
16921817572434: Event_284: system.switch_cpus2 progress event, total committed:339490847, progress insts committed: 11332188, IPC: 01.13209
16921817572434: Event_285: system.switch_cpus3 progress event, total committed:338728288, progress insts committed: 11251468, IPC: 01.12402
16925150905767: Event_285: system.switch_cpus3 progress event, total committed:350651498, progress insts committed: 11923210, IPC: 01.19113
16925150905767: Event_284: system.switch_cpus2 progress event, total committed:351259595, progress insts committed: 11768748, IPC: 001.1757
16925150905767: Event_283: system.switch_cpus1 progress event, total committed:349857579, progress insts committed: 11632724, IPC: 01.16211
16925150905767: Event_282: system.switch_cpus0 progress event, total committed:350642366, progress insts committed: 11920606, IPC: 01.19087
16928484239100: Event_282: system.switch_cpus0 progress event, total committed:362060702, progress insts committed: 11418336, IPC: 01.14069
16928484239100: Event_283: system.switch_cpus1 progress event, total committed:361174615, progress insts committed: 11317036, IPC: 01.13057
16928484239100: Event_284: system.switch_cpus2 progress event, total committed:362798492, progress insts committed: 11538897, IPC: 01.15274
16928484239100: Event_285: system.switch_cpus3 progress event, total committed:362191795, progress insts committed: 11540297, IPC: 01.15288
16931817572433: Event_285: system.switch_cpus3 progress event, total committed:372939275, progress insts committed: 10747480, IPC: 01.07367
16931817572433: Event_284: system.switch_cpus2 progress event, total committed:374395291, progress insts committed: 11596799, IPC: 01.15852
16931817572433: Event_283: system.switch_cpus1 progress event, total committed:372454723, progress insts committed: 11280108, IPC: 01.12688
16931817572433: Event_282: system.switch_cpus0 progress event, total committed:372570822, progress insts committed: 10510120, IPC: 01.04996
16935150905766: Event_282: system.switch_cpus0 progress event, total committed:384367645, progress insts committed: 11796823, IPC: 001.1785
16935150905766: Event_283: system.switch_cpus1 progress event, total committed:383916586, progress insts committed: 11461863, IPC: 01.14504
16935150905766: Event_284: system.switch_cpus2 progress event, total committed:385793952, progress insts committed: 11398661, IPC: 01.13873
16935150905766: Event_285: system.switch_cpus3 progress event, total committed:384532851, progress insts committed: 11593576, IPC: 001.1582
16938484239099: Event_285: system.switch_cpus3 progress event, total committed:396417050, progress insts committed: 11884199, IPC: 01.18723
16938484239099: Event_284: system.switch_cpus2 progress event, total committed:397207738, progress insts committed: 11413786, IPC: 01.14024
16938484239099: Event_283: system.switch_cpus1 progress event, total committed:395350831, progress insts committed: 11434245, IPC: 01.14228
16938484239099: Event_282: system.switch_cpus0 progress event, total committed:396327340, progress insts committed: 11959695, IPC: 01.19477
16941817572432: Event_282: system.switch_cpus0 progress event, total committed:408237345, progress insts committed: 11910005, IPC: 01.18981
16941817572432: Event_283: system.switch_cpus1 progress event, total committed:406817554, progress insts committed: 11466723, IPC: 01.14553
16941817572432: Event_284: system.switch_cpus2 progress event, total committed:408557488, progress insts committed: 11349750, IPC: 01.13384
16941817572432: Event_285: system.switch_cpus3 progress event, total committed:408296013, progress insts committed: 11878963, IPC: 01.18671
16945150905765: Event_285: system.switch_cpus3 progress event, total committed:420055255, progress insts committed: 11759242, IPC: 01.17475
16945150905765: Event_284: system.switch_cpus2 progress event, total committed:420234520, progress insts committed: 11677032, IPC: 01.16654
16945150905765: Event_283: system.switch_cpus1 progress event, total committed:418297157, progress insts committed: 11479603, IPC: 01.14681
16945150905765: Event_282: system.switch_cpus0 progress event, total committed:419803625, progress insts committed: 11566280, IPC: 01.15547
Exiting @ tick 16948128458115 because a thread reached the max instruction count
