Command line:
./runscript_pride.sh mcf AE.BASELINE.4C 4 2017
Global frequency set at 1000000000000 ticks per second
DRAM config: RowsPerBank: 65536, BanksPerRank: 32, RanksPerChannel: 1
warn: Sockets disabled, not accepting gdb connections
warn: CoherentXBar system.cpu0.mmucache.mmubus has no snooping ports attached!
warn: CoherentXBar system.cpu1.mmucache.mmubus has no snooping ports attached!
warn: CoherentXBar system.cpu2.mmucache.mmubus has no snooping ports attached!
warn: CoherentXBar system.cpu3.mmucache.mmubus has no snooping ports attached!
warn: Checkpoints for file descriptors currently do not work.
warn: Checkpoints for file descriptors currently do not work.
warn: Checkpoints for file descriptors currently do not work.
warn: Checkpoints for file descriptors currently do not work.
gem5 Simulator System.  http://gem5.org
gem5 is copyrighted software; use the --copyright option for details.

gem5 version 20.1.0.5
gem5 compiled Jul 12 2024 12:42:38
gem5 started Jul 17 2024 12:51:59
gem5 executing on a07dda8b130c, pid 86688
command line: /home/user/PrIDE/performance/gem5/build/X86/gem5.opt --outdir=/home/user/PrIDE/performance/gem5/stats/pride_multiprogram_16GBmem_250Mn.SPEC2017.C4/AE.BASELINE.4C/mcf /home/user/PrIDE/performance/gem5/configs/example/se_rq_spec_config_multicore.py --redirects /lib64=/home/utils/gcc-6.2.0/lib64 --benchmark=mcf --benchmark_stdout=/home/user/PrIDE/performance/gem5/stats/pride_multiprogram_16GBmem_250Mn.SPEC2017.C4/AE.BASELINE.4C/mcf/mcf.out --benchmark_stderr=/home/user/PrIDE/performance/gem5/stats/pride_multiprogram_16GBmem_250Mn.SPEC2017.C4/AE.BASELINE.4C/mcf/mcf.err --spec-version=2017 --num-cpus=4 --mem-size=16GB --mem-type=DDR5_2400_32x4 --mem-ranks=1 --checkpoint-dir=/home/user/PrIDE/performance/gem5/cpts/multiprogram_16GBmem_25Bn.SPEC2017.C4/mcf-1-ref-x86 --checkpoint-restore=25000000000 --at-instruction --cpu-type DerivO3CPU --caches --l2cache --l1d_size=32kB --l1i_size=32kB --l2_size=256kB --l1d_assoc=8 --l1i_assoc=8 --l2_assoc=16 --maxinsts=250000000 --prog-interval=300Hz

info: Standard input is not a terminal, disabling listeners.
Benchmark- 0   mcf
Selected benchmark
--> mcf
CMD: ['/opt/spec2017/benchspec/CPU/505.mcf_r/run/run_base_refrate_gem5_se-m64.0000/mcf_r_base.gem5_se-m64', '/opt/spec2017/benchspec/CPU/505.mcf_r/run/run_base_refrate_gem5_se-m64.0000/inp.in']
CWD: /opt/spec2017/benchspec/CPU/505.mcf_r/run/run_base_refrate_gem5_se-m64.0000/
Process stdout file: /home/user/PrIDE/performance/gem5/stats/pride_multiprogram_16GBmem_250Mn.SPEC2017.C4/AE.BASELINE.4C/mcf/mcf.out_0
Process stderr file: /home/user/PrIDE/performance/gem5/stats/pride_multiprogram_16GBmem_250Mn.SPEC2017.C4/AE.BASELINE.4C/mcf/mcf.err_0
Benchmark- 1   mcf
Selected benchmark
--> mcf
CMD: ['/opt/spec2017/benchspec/CPU/505.mcf_r/run/run_base_refrate_gem5_se-m64.0000/mcf_r_base.gem5_se-m64', '/opt/spec2017/benchspec/CPU/505.mcf_r/run/run_base_refrate_gem5_se-m64.0000/inp.in']
CWD: /opt/spec2017/benchspec/CPU/505.mcf_r/run/run_base_refrate_gem5_se-m64.0000/
Process stdout file: /home/user/PrIDE/performance/gem5/stats/pride_multiprogram_16GBmem_250Mn.SPEC2017.C4/AE.BASELINE.4C/mcf/mcf.out_1
Process stderr file: /home/user/PrIDE/performance/gem5/stats/pride_multiprogram_16GBmem_250Mn.SPEC2017.C4/AE.BASELINE.4C/mcf/mcf.err_1
Benchmark- 2   mcf
Selected benchmark
--> mcf
CMD: ['/opt/spec2017/benchspec/CPU/505.mcf_r/run/run_base_refrate_gem5_se-m64.0000/mcf_r_base.gem5_se-m64', '/opt/spec2017/benchspec/CPU/505.mcf_r/run/run_base_refrate_gem5_se-m64.0000/inp.in']
CWD: /opt/spec2017/benchspec/CPU/505.mcf_r/run/run_base_refrate_gem5_se-m64.0000/
Process stdout file: /home/user/PrIDE/performance/gem5/stats/pride_multiprogram_16GBmem_250Mn.SPEC2017.C4/AE.BASELINE.4C/mcf/mcf.out_2
Process stderr file: /home/user/PrIDE/performance/gem5/stats/pride_multiprogram_16GBmem_250Mn.SPEC2017.C4/AE.BASELINE.4C/mcf/mcf.err_2
Benchmark- 3   mcf
Selected benchmark
--> mcf
CMD: ['/opt/spec2017/benchspec/CPU/505.mcf_r/run/run_base_refrate_gem5_se-m64.0000/mcf_r_base.gem5_se-m64', '/opt/spec2017/benchspec/CPU/505.mcf_r/run/run_base_refrate_gem5_se-m64.0000/inp.in']
CWD: /opt/spec2017/benchspec/CPU/505.mcf_r/run/run_base_refrate_gem5_se-m64.0000/
Process stdout file: /home/user/PrIDE/performance/gem5/stats/pride_multiprogram_16GBmem_250Mn.SPEC2017.C4/AE.BASELINE.4C/mcf/mcf.out_3
Process stderr file: /home/user/PrIDE/performance/gem5/stats/pride_multiprogram_16GBmem_250Mn.SPEC2017.C4/AE.BASELINE.4C/mcf/mcf.err_3
Workload-0: 
['/opt/spec2017/benchspec/CPU/505.mcf_r/run/run_base_refrate_gem5_se-m64.0000/mcf_r_base.gem5_se-m64', '/opt/spec2017/benchspec/CPU/505.mcf_r/run/run_base_refrate_gem5_se-m64.0000/inp.in']
Workload-1: 
['/opt/spec2017/benchspec/CPU/505.mcf_r/run/run_base_refrate_gem5_se-m64.0000/mcf_r_base.gem5_se-m64', '/opt/spec2017/benchspec/CPU/505.mcf_r/run/run_base_refrate_gem5_se-m64.0000/inp.in']
Workload-2: 
['/opt/spec2017/benchspec/CPU/505.mcf_r/run/run_base_refrate_gem5_se-m64.0000/mcf_r_base.gem5_se-m64', '/opt/spec2017/benchspec/CPU/505.mcf_r/run/run_base_refrate_gem5_se-m64.0000/inp.in']
Workload-3: 
['/opt/spec2017/benchspec/CPU/505.mcf_r/run/run_base_refrate_gem5_se-m64.0000/mcf_r_base.gem5_se-m64', '/opt/spec2017/benchspec/CPU/505.mcf_r/run/run_base_refrate_gem5_se-m64.0000/inp.in']
defense_enable:  False  detector:  MG  mitigation:  RRS  threshold:  800
mg_entries:  1700
rrs_tuples:  3400 rrs_swap_delay:  2740ns rit_acc_delay:  1.25ns
Switch at curTick count:10000
warn: membus.master is deprecated. `master` is now called `mem_side_ports`
warn: No dot file generated. Please install pydot to generate the dot file and pdf.
info: Entering event queue @ 16815150868149.  Starting simulation...
warn: PowerState: Already in the requested power state, request ignored
Switched CPUS @ tick 16815150878149
switching cpus
**** REAL SIMULATION ****
info: Entering event queue @ 16815150878149.  Starting simulation...
16818484201482: Event_285: system.switch_cpus3 progress event, total committed:9313362, progress insts committed: 9313362, IPC: 0.930405
16818484201482: Event_284: system.switch_cpus2 progress event, total committed:9349170, progress insts committed: 9349170, IPC: 0.933982
16818484201482: Event_283: system.switch_cpus1 progress event, total committed:9319875, progress insts committed: 9319875, IPC: 0.931056
16818484201482: Event_282: system.switch_cpus0 progress event, total committed:9343875, progress insts committed: 9343875, IPC: 0.933453
16821817534815: Event_282: system.switch_cpus0 progress event, total committed:19378814, progress insts committed: 10034939, IPC: 01.00249
16821817534815: Event_283: system.switch_cpus1 progress event, total committed:19307520, progress insts committed: 9987645, IPC: 0.997766
16821817534815: Event_284: system.switch_cpus2 progress event, total committed:19385578, progress insts committed: 10036408, IPC: 01.00264
16821817534815: Event_285: system.switch_cpus3 progress event, total committed:19307313, progress insts committed: 9993951, IPC: 0.998396
16825150868148: Event_285: system.switch_cpus3 progress event, total committed:29450078, progress insts committed: 10142765, IPC: 01.01326
16825150868148: Event_284: system.switch_cpus2 progress event, total committed:29603663, progress insts committed: 10218085, IPC: 01.02079
16825150868148: Event_283: system.switch_cpus1 progress event, total committed:29461873, progress insts committed: 10154353, IPC: 01.01442
16825150868148: Event_282: system.switch_cpus0 progress event, total committed:29540824, progress insts committed: 10162010, IPC: 01.01518
16828484201481: Event_282: system.switch_cpus0 progress event, total committed:39929180, progress insts committed: 10388356, IPC: 001.0378
16828484201481: Event_283: system.switch_cpus1 progress event, total committed:39804852, progress insts committed: 10342979, IPC: 01.03326
16828484201481: Event_284: system.switch_cpus2 progress event, total committed:40118176, progress insts committed: 10514513, IPC: 001.0504
16828484201481: Event_285: system.switch_cpus3 progress event, total committed:39804768, progress insts committed: 10354690, IPC: 01.03443
16831817534814: Event_285: system.switch_cpus3 progress event, total committed:50146412, progress insts committed: 10341644, IPC: 01.03313
16831817534814: Event_284: system.switch_cpus2 progress event, total committed:50810259, progress insts committed: 10692083, IPC: 01.06814
16831817534814: Event_283: system.switch_cpus1 progress event, total committed:50127674, progress insts committed: 10322822, IPC: 01.03125
16831817534814: Event_282: system.switch_cpus0 progress event, total committed:50294991, progress insts committed: 10365811, IPC: 01.03554
16835150868147: Event_282: system.switch_cpus0 progress event, total committed:60908698, progress insts committed: 10613707, IPC: 01.06031
16835150868147: Event_283: system.switch_cpus1 progress event, total committed:60679132, progress insts committed: 10551458, IPC: 01.05409
16835150868147: Event_284: system.switch_cpus2 progress event, total committed:61491709, progress insts committed: 10681450, IPC: 01.06708
16835150868147: Event_285: system.switch_cpus3 progress event, total committed:60710170, progress insts committed: 10563758, IPC: 01.05532
16838484201480: Event_285: system.switch_cpus3 progress event, total committed:71309149, progress insts committed: 10598979, IPC: 01.05884
16838484201480: Event_284: system.switch_cpus2 progress event, total committed:72603723, progress insts committed: 11112014, IPC: 01.11009
16838484201480: Event_283: system.switch_cpus1 progress event, total committed:71221818, progress insts committed: 10542686, IPC: 01.05321
16838484201480: Event_282: system.switch_cpus0 progress event, total committed:71610303, progress insts committed: 10701605, IPC: 01.06909
16841817534813: Event_282: system.switch_cpus0 progress event, total committed:82477148, progress insts committed: 10866845, IPC: 001.0856
16841817534813: Event_283: system.switch_cpus1 progress event, total committed:81868877, progress insts committed: 10647059, IPC: 01.06364
16841817534813: Event_284: system.switch_cpus2 progress event, total committed:83446972, progress insts committed: 10843249, IPC: 01.08324
16841817534813: Event_285: system.switch_cpus3 progress event, total committed:81884540, progress insts committed: 10575391, IPC: 01.05648
16845150868146: Event_285: system.switch_cpus3 progress event, total committed:92171705, progress insts committed: 10287165, IPC: 01.02769
16845150868146: Event_284: system.switch_cpus2 progress event, total committed:93873346, progress insts committed: 10426374, IPC: 01.04159
16845150868146: Event_283: system.switch_cpus1 progress event, total committed:92137653, progress insts committed: 10268776, IPC: 01.02585
16845150868146: Event_282: system.switch_cpus0 progress event, total committed:93645944, progress insts committed: 11168796, IPC: 01.11576
16848484201479: Event_282: system.switch_cpus0 progress event, total committed:104158107, progress insts committed: 10512163, IPC: 01.05017
16848484201479: Event_283: system.switch_cpus1 progress event, total committed:102486267, progress insts committed: 10348614, IPC: 01.03383
16848484201479: Event_284: system.switch_cpus2 progress event, total committed:104176284, progress insts committed: 10302938, IPC: 01.02926
16848484201479: Event_285: system.switch_cpus3 progress event, total committed:102583069, progress insts committed: 10411364, IPC: 001.0401
16851817534812: Event_285: system.switch_cpus3 progress event, total committed:114285536, progress insts committed: 11702467, IPC: 01.16908
16851817534812: Event_284: system.switch_cpus2 progress event, total committed:114492117, progress insts committed: 10315833, IPC: 01.03055
16851817534812: Event_283: system.switch_cpus1 progress event, total committed:112735081, progress insts committed: 10248814, IPC: 01.02386
16851817534812: Event_282: system.switch_cpus0 progress event, total committed:114477391, progress insts committed: 10319284, IPC: 001.0309
16855150868145: Event_282: system.switch_cpus0 progress event, total committed:124736354, progress insts committed: 10258963, IPC: 01.02487
16855150868145: Event_283: system.switch_cpus1 progress event, total committed:123102988, progress insts committed: 10367907, IPC: 01.03575
16855150868145: Event_284: system.switch_cpus2 progress event, total committed:124754971, progress insts committed: 10262854, IPC: 01.02526
16855150868145: Event_285: system.switch_cpus3 progress event, total committed:124701171, progress insts committed: 10415635, IPC: 01.04052
16858484201478: Event_285: system.switch_cpus3 progress event, total committed:130027020, progress insts committed: 5325849, IPC: 0.532052
16858484201478: Event_284: system.switch_cpus2 progress event, total committed:130037185, progress insts committed: 5282214, IPC: 0.527693
16858484201478: Event_283: system.switch_cpus1 progress event, total committed:129958382, progress insts committed: 6855394, IPC: 0.684854
16858484201478: Event_282: system.switch_cpus0 progress event, total committed:130032046, progress insts committed: 5295692, IPC: 00.52904
16861817534811: Event_282: system.switch_cpus0 progress event, total committed:134201211, progress insts committed: 4169165, IPC: 000.4165
16861817534811: Event_283: system.switch_cpus1 progress event, total committed:132299467, progress insts committed: 2341085, IPC: 0.233874
16861817534811: Event_284: system.switch_cpus2 progress event, total committed:134233718, progress insts committed: 4196533, IPC: 0.419234
16861817534811: Event_285: system.switch_cpus3 progress event, total committed:134188060, progress insts committed: 4161040, IPC: 0.415688
16865150868144: Event_285: system.switch_cpus3 progress event, total committed:144942364, progress insts committed: 10754304, IPC: 01.07435
16865150868144: Event_284: system.switch_cpus2 progress event, total committed:145217050, progress insts committed: 10983332, IPC: 01.09723
16865150868144: Event_283: system.switch_cpus1 progress event, total committed:144132482, progress insts committed: 11833015, IPC: 01.18212
16865150868144: Event_282: system.switch_cpus0 progress event, total committed:144971125, progress insts committed: 10769914, IPC: 01.07591
16868484201477: Event_282: system.switch_cpus0 progress event, total committed:156096445, progress insts committed: 11125320, IPC: 01.11142
16868484201477: Event_283: system.switch_cpus1 progress event, total committed:155877479, progress insts committed: 11744997, IPC: 01.17333
16868484201477: Event_284: system.switch_cpus2 progress event, total committed:156146223, progress insts committed: 10929173, IPC: 01.09182
16868484201477: Event_285: system.switch_cpus3 progress event, total committed:156096584, progress insts committed: 11154220, IPC: 01.11431
16871817534810: Event_285: system.switch_cpus3 progress event, total committed:167312042, progress insts committed: 11215458, IPC: 01.12042
16871817534810: Event_284: system.switch_cpus2 progress event, total committed:167961419, progress insts committed: 11815196, IPC: 01.18034
16871817534810: Event_283: system.switch_cpus1 progress event, total committed:166929074, progress insts committed: 11051595, IPC: 01.10405
16871817534810: Event_282: system.switch_cpus0 progress event, total committed:167276075, progress insts committed: 11179630, IPC: 01.11685
16875150868143: Event_282: system.switch_cpus0 progress event, total committed:178047129, progress insts committed: 10771054, IPC: 01.07603
16875150868143: Event_283: system.switch_cpus1 progress event, total committed:178007463, progress insts committed: 11078389, IPC: 01.10673
16875150868143: Event_284: system.switch_cpus2 progress event, total committed:179896348, progress insts committed: 11934929, IPC: 001.1923
16875150868143: Event_285: system.switch_cpus3 progress event, total committed:178056880, progress insts committed: 10744838, IPC: 01.07341
16878484201476: Event_285: system.switch_cpus3 progress event, total committed:189812834, progress insts committed: 11755954, IPC: 01.17442
16878484201476: Event_284: system.switch_cpus2 progress event, total committed:191158586, progress insts committed: 11262238, IPC: 001.1251
16878484201476: Event_283: system.switch_cpus1 progress event, total committed:189431706, progress insts committed: 11424243, IPC: 01.14128
16878484201476: Event_282: system.switch_cpus0 progress event, total committed:189784958, progress insts committed: 11737829, IPC: 01.17261
16881817534809: Event_282: system.switch_cpus0 progress event, total committed:200436116, progress insts committed: 10651158, IPC: 01.06405
16881817534809: Event_283: system.switch_cpus1 progress event, total committed:200042362, progress insts committed: 10610656, IPC: 00001.06
16881817534809: Event_284: system.switch_cpus2 progress event, total committed:201918623, progress insts committed: 10760037, IPC: 01.07493
16881817534809: Event_285: system.switch_cpus3 progress event, total committed:200927421, progress insts committed: 11114587, IPC: 01.11035
16885150868142: Event_285: system.switch_cpus3 progress event, total committed:212721803, progress insts committed: 11794382, IPC: 01.17826
16885150868142: Event_284: system.switch_cpus2 progress event, total committed:213697041, progress insts committed: 11778418, IPC: 01.17666
16885150868142: Event_283: system.switch_cpus1 progress event, total committed:211703871, progress insts committed: 11661509, IPC: 01.16498
16885150868142: Event_282: system.switch_cpus0 progress event, total committed:211768483, progress insts committed: 11332367, IPC: 001.1321
16888484201475: Event_282: system.switch_cpus0 progress event, total committed:223579797, progress insts committed: 11811314, IPC: 01.17995
16888484201475: Event_283: system.switch_cpus1 progress event, total committed:222896694, progress insts committed: 11192823, IPC: 01.11816
16888484201475: Event_284: system.switch_cpus2 progress event, total committed:224738610, progress insts committed: 11041569, IPC: 01.10305
16888484201475: Event_285: system.switch_cpus3 progress event, total committed:224168120, progress insts committed: 11446317, IPC: 01.14349
16891817534808: Event_285: system.switch_cpus3 progress event, total committed:235539471, progress insts committed: 11371351, IPC: 0001.136
16891817534808: Event_284: system.switch_cpus2 progress event, total committed:235603439, progress insts committed: 10864829, IPC: 001.0854
16891817534808: Event_283: system.switch_cpus1 progress event, total committed:233795589, progress insts committed: 10898895, IPC: 001.0888
16891817534808: Event_282: system.switch_cpus0 progress event, total committed:235357859, progress insts committed: 11778062, IPC: 01.17663
16895150868141: Event_282: system.switch_cpus0 progress event, total committed:246749064, progress insts committed: 11391205, IPC: 01.13798
16895150868141: Event_283: system.switch_cpus1 progress event, total committed:245428483, progress insts committed: 11632894, IPC: 01.16213
16895150868141: Event_284: system.switch_cpus2 progress event, total committed:247376453, progress insts committed: 11773014, IPC: 01.17612
16895150868141: Event_285: system.switch_cpus3 progress event, total committed:247107323, progress insts committed: 11567852, IPC: 01.15563
16898484201474: Event_285: system.switch_cpus3 progress event, total committed:258124263, progress insts committed: 11016940, IPC: 01.10059
16898484201474: Event_284: system.switch_cpus2 progress event, total committed:258744615, progress insts committed: 11368162, IPC: 01.13568
16898484201474: Event_283: system.switch_cpus1 progress event, total committed:257342684, progress insts committed: 11914201, IPC: 01.19023
16898484201474: Event_282: system.switch_cpus0 progress event, total committed:258000484, progress insts committed: 11251420, IPC: 01.12402
16901817534807: Event_282: system.switch_cpus0 progress event, total committed:269360744, progress insts committed: 11360260, IPC: 01.13489
16901817534807: Event_283: system.switch_cpus1 progress event, total committed:269268090, progress insts committed: 11925406, IPC: 01.19135
16901817534807: Event_284: system.switch_cpus2 progress event, total committed:270202075, progress insts committed: 11457460, IPC: 001.1446
16901817534807: Event_285: system.switch_cpus3 progress event, total committed:269371358, progress insts committed: 11247095, IPC: 01.12358
16905150868140: Event_285: system.switch_cpus3 progress event, total committed:281164348, progress insts committed: 11792990, IPC: 01.17812
16905150868140: Event_284: system.switch_cpus2 progress event, total committed:281842774, progress insts committed: 11640699, IPC: 01.16291
16905150868140: Event_283: system.switch_cpus1 progress event, total committed:280421098, progress insts committed: 11153008, IPC: 01.11419
16905150868140: Event_282: system.switch_cpus0 progress event, total committed:281125963, progress insts committed: 11765219, IPC: 01.17535
16908484201473: Event_282: system.switch_cpus0 progress event, total committed:292241140, progress insts committed: 11115177, IPC: 01.11041
16908484201473: Event_283: system.switch_cpus1 progress event, total committed:291514471, progress insts committed: 11093373, IPC: 01.10823
16908484201473: Event_284: system.switch_cpus2 progress event, total committed:293199405, progress insts committed: 11356631, IPC: 01.13453
16908484201473: Event_285: system.switch_cpus3 progress event, total committed:292718473, progress insts committed: 11554125, IPC: 01.15426
16911817534806: Event_285: system.switch_cpus3 progress event, total committed:304412561, progress insts committed: 11694088, IPC: 01.16824
16911817534806: Event_284: system.switch_cpus2 progress event, total committed:305004717, progress insts committed: 11805312, IPC: 01.17935
16911817534806: Event_283: system.switch_cpus1 progress event, total committed:303025381, progress insts committed: 11510910, IPC: 01.14994
16911817534806: Event_282: system.switch_cpus0 progress event, total committed:303565414, progress insts committed: 11324274, IPC: 01.13129
16915150868139: Event_282: system.switch_cpus0 progress event, total committed:315043925, progress insts committed: 11478511, IPC: 001.1467
16915150868139: Event_283: system.switch_cpus1 progress event, total committed:314846972, progress insts committed: 11821591, IPC: 01.18098
16915150868139: Event_284: system.switch_cpus2 progress event, total committed:316609004, progress insts committed: 11604287, IPC: 01.15927
16915150868139: Event_285: system.switch_cpus3 progress event, total committed:315818165, progress insts committed: 11405604, IPC: 01.13942
16918484201472: Event_285: system.switch_cpus3 progress event, total committed:327116210, progress insts committed: 11298045, IPC: 01.12867
16918484201472: Event_284: system.switch_cpus2 progress event, total committed:327833093, progress insts committed: 11224089, IPC: 01.12129
16918484201472: Event_283: system.switch_cpus1 progress event, total committed:326280639, progress insts committed: 11433667, IPC: 01.14222
16918484201472: Event_282: system.switch_cpus0 progress event, total committed:326830676, progress insts committed: 11786751, IPC: 001.1775
16921817534805: Event_282: system.switch_cpus0 progress event, total committed:338670437, progress insts committed: 11839761, IPC: 01.18279
16921817534805: Event_283: system.switch_cpus1 progress event, total committed:337741508, progress insts committed: 11460869, IPC: 01.14494
16921817534805: Event_284: system.switch_cpus2 progress event, total committed:339144508, progress insts committed: 11311415, IPC: 01.13001
16921817534805: Event_285: system.switch_cpus3 progress event, total committed:338689952, progress insts committed: 11573742, IPC: 01.15622
16925150868138: Event_285: system.switch_cpus3 progress event, total committed:350613752, progress insts committed: 11923800, IPC: 01.19119
16925150868138: Event_284: system.switch_cpus2 progress event, total committed:350785463, progress insts committed: 11640955, IPC: 01.16293
16925150868138: Event_283: system.switch_cpus1 progress event, total committed:349503572, progress insts committed: 11762064, IPC: 01.17503
16925150868138: Event_282: system.switch_cpus0 progress event, total committed:350540277, progress insts committed: 11869840, IPC: 001.1858
16928484201471: Event_282: system.switch_cpus0 progress event, total committed:361798055, progress insts committed: 11257778, IPC: 01.12465
16928484201471: Event_283: system.switch_cpus1 progress event, total committed:360884267, progress insts committed: 11380695, IPC: 01.13693
16928484201471: Event_284: system.switch_cpus2 progress event, total committed:362629494, progress insts committed: 11844031, IPC: 01.18322
16928484201471: Event_285: system.switch_cpus3 progress event, total committed:362015588, progress insts committed: 11401836, IPC: 01.13904
16931817534804: Event_285: system.switch_cpus3 progress event, total committed:372745533, progress insts committed: 10729945, IPC: 01.07192
16931817534804: Event_284: system.switch_cpus2 progress event, total committed:374098653, progress insts committed: 11469159, IPC: 01.14577
16931817534804: Event_283: system.switch_cpus1 progress event, total committed:372429778, progress insts committed: 11545511, IPC: 001.1534
16931817534804: Event_282: system.switch_cpus0 progress event, total committed:372543001, progress insts committed: 10744946, IPC: 01.07342
16935150868137: Event_282: system.switch_cpus0 progress event, total committed:384339367, progress insts committed: 11796366, IPC: 01.17846
16935150868137: Event_283: system.switch_cpus1 progress event, total committed:383749206, progress insts committed: 11319428, IPC: 01.13081
16935150868137: Event_284: system.switch_cpus2 progress event, total committed:385539563, progress insts committed: 11440910, IPC: 01.14295
16935150868137: Event_285: system.switch_cpus3 progress event, total committed:384425587, progress insts committed: 11680054, IPC: 01.16684
16938484201470: Event_285: system.switch_cpus3 progress event, total committed:396387662, progress insts committed: 11962075, IPC: 01.19501
16938484201470: Event_284: system.switch_cpus2 progress event, total committed:396997546, progress insts committed: 11457983, IPC: 01.14465
16938484201470: Event_283: system.switch_cpus1 progress event, total committed:395190693, progress insts committed: 11441487, IPC: 0001.143
16938484201470: Event_282: system.switch_cpus0 progress event, total committed:396298445, progress insts committed: 11959078, IPC: 01.19471
16941817534803: Event_282: system.switch_cpus0 progress event, total committed:408022068, progress insts committed: 11723623, IPC: 01.17119
16941817534803: Event_283: system.switch_cpus1 progress event, total committed:406721321, progress insts committed: 11530628, IPC: 01.15191
16941817534803: Event_284: system.switch_cpus2 progress event, total committed:408392012, progress insts committed: 11394466, IPC: 01.13831
16941817534803: Event_285: system.switch_cpus3 progress event, total committed:408273249, progress insts committed: 11885587, IPC: 01.18737
16945150868136: Event_285: system.switch_cpus3 progress event, total committed:419892402, progress insts committed: 11619153, IPC: 01.16075
16945150868136: Event_284: system.switch_cpus2 progress event, total committed:420218583, progress insts committed: 11826571, IPC: 01.18147
16945150868136: Event_283: system.switch_cpus1 progress event, total committed:418253917, progress insts committed: 11532596, IPC: 01.15211
16945150868136: Event_282: system.switch_cpus0 progress event, total committed:419618070, progress insts committed: 11596002, IPC: 01.15844
Exiting @ tick 16948144354203 because a thread reached the max instruction count
