Command line:
./runscript_pride.sh imagick RFM10.BR2.4C 4 2017 --rh_defense --rh_mitigation=RFM --rh_rfm_per_trefi=10 --rh_rfm_blast_radius=2 --rh_rfm_maxacts_per_trefi=79
Global frequency set at 1000000000000 ticks per second
RFM details - rfm_act_threshold: 7, blast_radius: 2, delay_per_rfm: 175000 ps. sample_rate: 0.125000
RH Defense config: RFM, Bus Delay: 0, rfms_per_trefi: 10, rfm_act_threshold: 7, blast_radius: 2,rfm_delay_per_act: 45000 ps.
DRAM config: RowsPerBank: 65536, BanksPerRank: 32, RanksPerChannel: 1
warn: Sockets disabled, not accepting gdb connections
warn: CoherentXBar system.cpu0.mmucache.mmubus has no snooping ports attached!
warn: CoherentXBar system.cpu1.mmucache.mmubus has no snooping ports attached!
warn: CoherentXBar system.cpu2.mmucache.mmubus has no snooping ports attached!
warn: CoherentXBar system.cpu3.mmucache.mmubus has no snooping ports attached!
warn: Checkpoints for file descriptors currently do not work.
warn: Checkpoints for file descriptors currently do not work.
warn: Checkpoints for file descriptors currently do not work.
warn: Checkpoints for file descriptors currently do not work.
gem5 Simulator System.  http://gem5.org
gem5 is copyrighted software; use the --copyright option for details.

gem5 version 20.1.0.5
gem5 compiled Jul 12 2024 12:42:38
gem5 started Aug  1 2024 19:02:15
gem5 executing on a07dda8b130c, pid 251342
command line: /home/user/PrIDE/performance/gem5/build/X86/gem5.opt --outdir=/home/user/PrIDE/performance/gem5/stats/pride_multiprogram_16GBmem_250Mn.SPEC2017.C4/RFM10.BR2.4C/imagick /home/user/PrIDE/performance/gem5/configs/example/se_rq_spec_config_multicore.py --redirects /lib64=/home/utils/gcc-6.2.0/lib64 --benchmark=imagick --benchmark_stdout=/home/user/PrIDE/performance/gem5/stats/pride_multiprogram_16GBmem_250Mn.SPEC2017.C4/RFM10.BR2.4C/imagick/imagick.out --benchmark_stderr=/home/user/PrIDE/performance/gem5/stats/pride_multiprogram_16GBmem_250Mn.SPEC2017.C4/RFM10.BR2.4C/imagick/imagick.err --spec-version=2017 --rh_defense --rh_mitigation=RFM --rh_rfm_per_trefi=10 --rh_rfm_blast_radius=2 --rh_rfm_maxacts_per_trefi=79 --num-cpus=4 --mem-size=16GB --mem-type=DDR5_2400_32x4 --mem-ranks=1 --mem-channels=1 --checkpoint-dir=/home/user/PrIDE/performance/gem5/cpts-DDR5/multiprogram_16GBmem_25Bn.SPEC2017.C4/imagick-1-ref-x86 --checkpoint-restore=25000000000 --at-instruction --cpu-type DerivO3CPU --caches --l2cache --l1d_size=32kB --l1i_size=32kB --l2_size=256kB --l3_size=4MB --l1d_assoc=8 --l1i_assoc=8 --l2_assoc=16 --l3_assoc=16 --cpu-clock=3GHz --sys-clock=3GHz --maxinsts=250000000 --prog-interval=300Hz

info: Standard input is not a terminal, disabling listeners.
Benchmark- 0   imagick
Selected benchmark
--> imagick
CMD: ['/opt/spec2017/benchspec/CPU/538.imagick_r/run/run_base_refrate_gem5_se-m64.0000/imagick_r_base.gem5_se-m64', '-limit', 'disk', '0', '/opt/spec2017/benchspec/CPU/538.imagick_r/run/run_base_refrate_gem5_se-m64.0000/refrate_input.tga', '-edge', '41', '-resample', '181%', '-emboss', '31', '-colorspace', 'YUV', '-mean-shift', '19x19+15%', '-resize', '30%', '/opt/spec2017/benchspec/CPU/538.imagick_r/run/run_base_refrate_gem5_se-m64.0000/refrate_output.tga']
CWD: /opt/spec2017/benchspec/CPU/538.imagick_r/run/run_base_refrate_gem5_se-m64.0000/
Process stdout file: /home/user/PrIDE/performance/gem5/stats/pride_multiprogram_16GBmem_250Mn.SPEC2017.C4/RFM10.BR2.4C/imagick/imagick.out_0
Process stderr file: /home/user/PrIDE/performance/gem5/stats/pride_multiprogram_16GBmem_250Mn.SPEC2017.C4/RFM10.BR2.4C/imagick/imagick.err_0
Benchmark- 1   imagick
Selected benchmark
--> imagick
CMD: ['/opt/spec2017/benchspec/CPU/538.imagick_r/run/run_base_refrate_gem5_se-m64.0000/imagick_r_base.gem5_se-m64', '-limit', 'disk', '0', '/opt/spec2017/benchspec/CPU/538.imagick_r/run/run_base_refrate_gem5_se-m64.0000/refrate_input.tga', '-edge', '41', '-resample', '181%', '-emboss', '31', '-colorspace', 'YUV', '-mean-shift', '19x19+15%', '-resize', '30%', '/opt/spec2017/benchspec/CPU/538.imagick_r/run/run_base_refrate_gem5_se-m64.0000/refrate_output.tga']
CWD: /opt/spec2017/benchspec/CPU/538.imagick_r/run/run_base_refrate_gem5_se-m64.0000/
Process stdout file: /home/user/PrIDE/performance/gem5/stats/pride_multiprogram_16GBmem_250Mn.SPEC2017.C4/RFM10.BR2.4C/imagick/imagick.out_1
Process stderr file: /home/user/PrIDE/performance/gem5/stats/pride_multiprogram_16GBmem_250Mn.SPEC2017.C4/RFM10.BR2.4C/imagick/imagick.err_1
Benchmark- 2   imagick
Selected benchmark
--> imagick
CMD: ['/opt/spec2017/benchspec/CPU/538.imagick_r/run/run_base_refrate_gem5_se-m64.0000/imagick_r_base.gem5_se-m64', '-limit', 'disk', '0', '/opt/spec2017/benchspec/CPU/538.imagick_r/run/run_base_refrate_gem5_se-m64.0000/refrate_input.tga', '-edge', '41', '-resample', '181%', '-emboss', '31', '-colorspace', 'YUV', '-mean-shift', '19x19+15%', '-resize', '30%', '/opt/spec2017/benchspec/CPU/538.imagick_r/run/run_base_refrate_gem5_se-m64.0000/refrate_output.tga']
CWD: /opt/spec2017/benchspec/CPU/538.imagick_r/run/run_base_refrate_gem5_se-m64.0000/
Process stdout file: /home/user/PrIDE/performance/gem5/stats/pride_multiprogram_16GBmem_250Mn.SPEC2017.C4/RFM10.BR2.4C/imagick/imagick.out_2
Process stderr file: /home/user/PrIDE/performance/gem5/stats/pride_multiprogram_16GBmem_250Mn.SPEC2017.C4/RFM10.BR2.4C/imagick/imagick.err_2
Benchmark- 3   imagick
Selected benchmark
--> imagick
CMD: ['/opt/spec2017/benchspec/CPU/538.imagick_r/run/run_base_refrate_gem5_se-m64.0000/imagick_r_base.gem5_se-m64', '-limit', 'disk', '0', '/opt/spec2017/benchspec/CPU/538.imagick_r/run/run_base_refrate_gem5_se-m64.0000/refrate_input.tga', '-edge', '41', '-resample', '181%', '-emboss', '31', '-colorspace', 'YUV', '-mean-shift', '19x19+15%', '-resize', '30%', '/opt/spec2017/benchspec/CPU/538.imagick_r/run/run_base_refrate_gem5_se-m64.0000/refrate_output.tga']
CWD: /opt/spec2017/benchspec/CPU/538.imagick_r/run/run_base_refrate_gem5_se-m64.0000/
Process stdout file: /home/user/PrIDE/performance/gem5/stats/pride_multiprogram_16GBmem_250Mn.SPEC2017.C4/RFM10.BR2.4C/imagick/imagick.out_3
Process stderr file: /home/user/PrIDE/performance/gem5/stats/pride_multiprogram_16GBmem_250Mn.SPEC2017.C4/RFM10.BR2.4C/imagick/imagick.err_3
Workload-0: 
['/opt/spec2017/benchspec/CPU/538.imagick_r/run/run_base_refrate_gem5_se-m64.0000/imagick_r_base.gem5_se-m64', '-limit', 'disk', '0', '/opt/spec2017/benchspec/CPU/538.imagick_r/run/run_base_refrate_gem5_se-m64.0000/refrate_input.tga', '-edge', '41', '-resample', '181%', '-emboss', '31', '-colorspace', 'YUV', '-mean-shift', '19x19+15%', '-resize', '30%', '/opt/spec2017/benchspec/CPU/538.imagick_r/run/run_base_refrate_gem5_se-m64.0000/refrate_output.tga']
Workload-1: 
['/opt/spec2017/benchspec/CPU/538.imagick_r/run/run_base_refrate_gem5_se-m64.0000/imagick_r_base.gem5_se-m64', '-limit', 'disk', '0', '/opt/spec2017/benchspec/CPU/538.imagick_r/run/run_base_refrate_gem5_se-m64.0000/refrate_input.tga', '-edge', '41', '-resample', '181%', '-emboss', '31', '-colorspace', 'YUV', '-mean-shift', '19x19+15%', '-resize', '30%', '/opt/spec2017/benchspec/CPU/538.imagick_r/run/run_base_refrate_gem5_se-m64.0000/refrate_output.tga']
Workload-2: 
['/opt/spec2017/benchspec/CPU/538.imagick_r/run/run_base_refrate_gem5_se-m64.0000/imagick_r_base.gem5_se-m64', '-limit', 'disk', '0', '/opt/spec2017/benchspec/CPU/538.imagick_r/run/run_base_refrate_gem5_se-m64.0000/refrate_input.tga', '-edge', '41', '-resample', '181%', '-emboss', '31', '-colorspace', 'YUV', '-mean-shift', '19x19+15%', '-resize', '30%', '/opt/spec2017/benchspec/CPU/538.imagick_r/run/run_base_refrate_gem5_se-m64.0000/refrate_output.tga']
Workload-3: 
['/opt/spec2017/benchspec/CPU/538.imagick_r/run/run_base_refrate_gem5_se-m64.0000/imagick_r_base.gem5_se-m64', '-limit', 'disk', '0', '/opt/spec2017/benchspec/CPU/538.imagick_r/run/run_base_refrate_gem5_se-m64.0000/refrate_input.tga', '-edge', '41', '-resample', '181%', '-emboss', '31', '-colorspace', 'YUV', '-mean-shift', '19x19+15%', '-resize', '30%', '/opt/spec2017/benchspec/CPU/538.imagick_r/run/run_base_refrate_gem5_se-m64.0000/refrate_output.tga']
defense_enable:  True  detector:  MG  mitigation:  RFM  threshold:  800
mg_entries:  1700
rfm_maxacts_per_trefi:  79 rfm_per_trefi:  10 rfm_blast_radius:  2
Switch at curTick count:10000
warn: membus.master is deprecated. `master` is now called `mem_side_ports`
warn: No dot file generated. Please install pydot to generate the dot file and pdf.
info: Entering event queue @ 17327668666986.  Starting simulation...
info: Entering event queue @ 17327668676986.  Starting simulation...
warn: PowerState: Already in the requested power state, request ignored
Switched CPUS @ tick 17327668676986
switching cpus
**** REAL SIMULATION ****
info: Entering event queue @ 17327668677309.  Starting simulation...
17331002000319: Event_285: system.switch_cpus3 progress event, total committed:44037759, progress insts committed: 44037759, IPC: 04.39937
17331002000319: Event_284: system.switch_cpus2 progress event, total committed:44037683, progress insts committed: 44037683, IPC: 04.39936
17331002000319: Event_283: system.switch_cpus1 progress event, total committed:43603845, progress insts committed: 43603845, IPC: 04.35602
17331002000319: Event_282: system.switch_cpus0 progress event, total committed:43694329, progress insts committed: 43694329, IPC: 04.36506
17334335333652: Event_282: system.switch_cpus0 progress event, total committed:92882585, progress insts committed: 49188256, IPC: 04.91391
17334335333652: Event_283: system.switch_cpus1 progress event, total committed:92506825, progress insts committed: 48902980, IPC: 04.88541
17334335333652: Event_284: system.switch_cpus2 progress event, total committed:93357034, progress insts committed: 49319351, IPC: 0004.927
17334335333652: Event_285: system.switch_cpus3 progress event, total committed:93357103, progress insts committed: 49319344, IPC: 0004.927
17337668666985: Event_285: system.switch_cpus3 progress event, total committed:141962206, progress insts committed: 48605103, IPC: 04.85565
17337668666985: Event_284: system.switch_cpus2 progress event, total committed:141962302, progress insts committed: 48605268, IPC: 04.85567
17337668666985: Event_283: system.switch_cpus1 progress event, total committed:140479932, progress insts committed: 47973107, IPC: 04.79251
17337668666985: Event_282: system.switch_cpus0 progress event, total committed:141392241, progress insts committed: 48509656, IPC: 04.84611
17341002000318: Event_282: system.switch_cpus0 progress event, total committed:187848856, progress insts committed: 46456615, IPC: 04.64102
17341002000318: Event_283: system.switch_cpus1 progress event, total committed:187120288, progress insts committed: 46640356, IPC: 04.65937
17341002000318: Event_284: system.switch_cpus2 progress event, total committed:188802888, progress insts committed: 46840586, IPC: 04.67937
17341002000318: Event_285: system.switch_cpus3 progress event, total committed:188802975, progress insts committed: 46840769, IPC: 04.67939
17344335333651: Event_285: system.switch_cpus3 progress event, total committed:234197656, progress insts committed: 45394681, IPC: 04.53493
17344335333651: Event_284: system.switch_cpus2 progress event, total committed:234209700, progress insts committed: 45406812, IPC: 04.53614
17344335333651: Event_283: system.switch_cpus1 progress event, total committed:232502997, progress insts committed: 45382709, IPC: 04.53373
17344335333651: Event_282: system.switch_cpus0 progress event, total committed:233074645, progress insts committed: 45225789, IPC: 04.51806
warn: MOVNTDQ: Ignoring non-temporal hint, modeling as cacheable!
17347668666984: Event_282: system.switch_cpus0 progress event, total committed:247317057, progress insts committed: 14242412, IPC: 01.42282
17347668666984: Event_283: system.switch_cpus1 progress event, total committed:246541575, progress insts committed: 14038578, IPC: 01.40245
17347668666984: Event_284: system.switch_cpus2 progress event, total committed:249228853, progress insts committed: 15019153, IPC: 01.50041
17347668666984: Event_285: system.switch_cpus3 progress event, total committed:249007601, progress insts committed: 14809945, IPC: 01.47951
17351002000317: Event_285: system.switch_cpus3 progress event, total committed:290856994, progress insts committed: 41849393, IPC: 04.18075
17351002000317: Event_284: system.switch_cpus2 progress event, total committed:291044376, progress insts committed: 41815523, IPC: 04.17737
17351002000317: Event_283: system.switch_cpus1 progress event, total committed:288202425, progress insts committed: 41660850, IPC: 04.16192
17351002000317: Event_282: system.switch_cpus0 progress event, total committed:288915825, progress insts committed: 41598768, IPC: 04.15572
17354335333650: Event_282: system.switch_cpus0 progress event, total committed:331100837, progress insts committed: 42185012, IPC: 04.21428
17354335333650: Event_283: system.switch_cpus1 progress event, total committed:330256696, progress insts committed: 42054271, IPC: 04.20122
17354335333650: Event_284: system.switch_cpus2 progress event, total committed:333367306, progress insts committed: 42322930, IPC: 04.22806
17354335333650: Event_285: system.switch_cpus3 progress event, total committed:333174450, progress insts committed: 42317456, IPC: 04.22751
17357668666983: Event_285: system.switch_cpus3 progress event, total committed:375887139, progress insts committed: 42712689, IPC: 0004.267
17357668666983: Event_284: system.switch_cpus2 progress event, total committed:376058195, progress insts committed: 42690889, IPC: 04.26482
17357668666983: Event_283: system.switch_cpus1 progress event, total committed:372766849, progress insts committed: 42510153, IPC: 04.24676
17357668666983: Event_282: system.switch_cpus0 progress event, total committed:373816148, progress insts committed: 42715311, IPC: 04.26726
17361002000316: Event_282: system.switch_cpus0 progress event, total committed:415084127, progress insts committed: 41267979, IPC: 04.12267
17361002000316: Event_283: system.switch_cpus1 progress event, total committed:414044749, progress insts committed: 41277900, IPC: 04.12366
17361002000316: Event_284: system.switch_cpus2 progress event, total committed:417605746, progress insts committed: 41547551, IPC: 004.1506
17361002000316: Event_285: system.switch_cpus3 progress event, total committed:417424518, progress insts committed: 41537379, IPC: 04.14958
Exiting @ tick 17361425145384 because a thread reached the max instruction count
