Command line:
./runscript_pride.sh lbm RFM1.BR2.4C 4 2017 --rh_defense --rh_mitigation=RFM --rh_rfm_per_trefi=1 --rh_rfm_blast_radius=2 --rh_rfm_maxacts_per_trefi=79
Global frequency set at 1000000000000 ticks per second
RFM details - rfm_act_threshold: 79, blast_radius: 2, delay_per_rfm: 175000 ps. sample_rate: 0.012500
RH Defense config: RFM, Bus Delay: 0, rfms_per_trefi: 1, rfm_act_threshold: 79, blast_radius: 2,rfm_delay_per_act: 45000 ps.
DRAM config: RowsPerBank: 65536, BanksPerRank: 32, RanksPerChannel: 1
warn: Sockets disabled, not accepting gdb connections
warn: CoherentXBar system.cpu0.mmucache.mmubus has no snooping ports attached!
warn: CoherentXBar system.cpu1.mmucache.mmubus has no snooping ports attached!
warn: CoherentXBar system.cpu2.mmucache.mmubus has no snooping ports attached!
warn: CoherentXBar system.cpu3.mmucache.mmubus has no snooping ports attached!
warn: Checkpoints for file descriptors currently do not work.
warn: Checkpoints for file descriptors currently do not work.
warn: Checkpoints for file descriptors currently do not work.
warn: Checkpoints for file descriptors currently do not work.
gem5 Simulator System.  http://gem5.org
gem5 is copyrighted software; use the --copyright option for details.

gem5 version 20.1.0.5
gem5 compiled Jul 12 2024 12:42:38
gem5 started Aug  1 2024 16:47:12
gem5 executing on a07dda8b130c, pid 249721
command line: /home/user/PrIDE/performance/gem5/build/X86/gem5.opt --outdir=/home/user/PrIDE/performance/gem5/stats/pride_multiprogram_16GBmem_250Mn.SPEC2017.C4/RFM1.BR2.4C/lbm /home/user/PrIDE/performance/gem5/configs/example/se_rq_spec_config_multicore.py --redirects /lib64=/home/utils/gcc-6.2.0/lib64 --benchmark=lbm --benchmark_stdout=/home/user/PrIDE/performance/gem5/stats/pride_multiprogram_16GBmem_250Mn.SPEC2017.C4/RFM1.BR2.4C/lbm/lbm.out --benchmark_stderr=/home/user/PrIDE/performance/gem5/stats/pride_multiprogram_16GBmem_250Mn.SPEC2017.C4/RFM1.BR2.4C/lbm/lbm.err --spec-version=2017 --rh_defense --rh_mitigation=RFM --rh_rfm_per_trefi=1 --rh_rfm_blast_radius=2 --rh_rfm_maxacts_per_trefi=79 --num-cpus=4 --mem-size=16GB --mem-type=DDR5_2400_32x4 --mem-ranks=1 --mem-channels=1 --checkpoint-dir=/home/user/PrIDE/performance/gem5/cpts-DDR5/multiprogram_16GBmem_25Bn.SPEC2017.C4/lbm-1-ref-x86 --checkpoint-restore=25000000000 --at-instruction --cpu-type DerivO3CPU --caches --l2cache --l1d_size=32kB --l1i_size=32kB --l2_size=256kB --l3_size=4MB --l1d_assoc=8 --l1i_assoc=8 --l2_assoc=16 --l3_assoc=16 --cpu-clock=3GHz --sys-clock=3GHz --maxinsts=250000000 --prog-interval=300Hz

info: Standard input is not a terminal, disabling listeners.
Benchmark- 0   lbm
Selected benchmark
--> lbm
CMD: ['/opt/spec2017/benchspec/CPU/519.lbm_r/run/run_base_refrate_gem5_se-m64.0000/lbm_r_base.gem5_se-m64', '3000', 'reference.dat', '0', '0', '/opt/spec2017/benchspec/CPU/519.lbm_r/run/run_base_refrate_gem5_se-m64.0000/100_100_130_ldc.of']
CWD: /opt/spec2017/benchspec/CPU/519.lbm_r/run/run_base_refrate_gem5_se-m64.0000/
Process stdout file: /home/user/PrIDE/performance/gem5/stats/pride_multiprogram_16GBmem_250Mn.SPEC2017.C4/RFM1.BR2.4C/lbm/lbm.out_0
Process stderr file: /home/user/PrIDE/performance/gem5/stats/pride_multiprogram_16GBmem_250Mn.SPEC2017.C4/RFM1.BR2.4C/lbm/lbm.err_0
Benchmark- 1   lbm
Selected benchmark
--> lbm
CMD: ['/opt/spec2017/benchspec/CPU/519.lbm_r/run/run_base_refrate_gem5_se-m64.0000/lbm_r_base.gem5_se-m64', '3000', 'reference.dat', '0', '0', '/opt/spec2017/benchspec/CPU/519.lbm_r/run/run_base_refrate_gem5_se-m64.0000/100_100_130_ldc.of']
CWD: /opt/spec2017/benchspec/CPU/519.lbm_r/run/run_base_refrate_gem5_se-m64.0000/
Process stdout file: /home/user/PrIDE/performance/gem5/stats/pride_multiprogram_16GBmem_250Mn.SPEC2017.C4/RFM1.BR2.4C/lbm/lbm.out_1
Process stderr file: /home/user/PrIDE/performance/gem5/stats/pride_multiprogram_16GBmem_250Mn.SPEC2017.C4/RFM1.BR2.4C/lbm/lbm.err_1
Benchmark- 2   lbm
Selected benchmark
--> lbm
CMD: ['/opt/spec2017/benchspec/CPU/519.lbm_r/run/run_base_refrate_gem5_se-m64.0000/lbm_r_base.gem5_se-m64', '3000', 'reference.dat', '0', '0', '/opt/spec2017/benchspec/CPU/519.lbm_r/run/run_base_refrate_gem5_se-m64.0000/100_100_130_ldc.of']
CWD: /opt/spec2017/benchspec/CPU/519.lbm_r/run/run_base_refrate_gem5_se-m64.0000/
Process stdout file: /home/user/PrIDE/performance/gem5/stats/pride_multiprogram_16GBmem_250Mn.SPEC2017.C4/RFM1.BR2.4C/lbm/lbm.out_2
Process stderr file: /home/user/PrIDE/performance/gem5/stats/pride_multiprogram_16GBmem_250Mn.SPEC2017.C4/RFM1.BR2.4C/lbm/lbm.err_2
Benchmark- 3   lbm
Selected benchmark
--> lbm
CMD: ['/opt/spec2017/benchspec/CPU/519.lbm_r/run/run_base_refrate_gem5_se-m64.0000/lbm_r_base.gem5_se-m64', '3000', 'reference.dat', '0', '0', '/opt/spec2017/benchspec/CPU/519.lbm_r/run/run_base_refrate_gem5_se-m64.0000/100_100_130_ldc.of']
CWD: /opt/spec2017/benchspec/CPU/519.lbm_r/run/run_base_refrate_gem5_se-m64.0000/
Process stdout file: /home/user/PrIDE/performance/gem5/stats/pride_multiprogram_16GBmem_250Mn.SPEC2017.C4/RFM1.BR2.4C/lbm/lbm.out_3
Process stderr file: /home/user/PrIDE/performance/gem5/stats/pride_multiprogram_16GBmem_250Mn.SPEC2017.C4/RFM1.BR2.4C/lbm/lbm.err_3
Workload-0: 
['/opt/spec2017/benchspec/CPU/519.lbm_r/run/run_base_refrate_gem5_se-m64.0000/lbm_r_base.gem5_se-m64', '3000', 'reference.dat', '0', '0', '/opt/spec2017/benchspec/CPU/519.lbm_r/run/run_base_refrate_gem5_se-m64.0000/100_100_130_ldc.of']
Workload-1: 
['/opt/spec2017/benchspec/CPU/519.lbm_r/run/run_base_refrate_gem5_se-m64.0000/lbm_r_base.gem5_se-m64', '3000', 'reference.dat', '0', '0', '/opt/spec2017/benchspec/CPU/519.lbm_r/run/run_base_refrate_gem5_se-m64.0000/100_100_130_ldc.of']
Workload-2: 
['/opt/spec2017/benchspec/CPU/519.lbm_r/run/run_base_refrate_gem5_se-m64.0000/lbm_r_base.gem5_se-m64', '3000', 'reference.dat', '0', '0', '/opt/spec2017/benchspec/CPU/519.lbm_r/run/run_base_refrate_gem5_se-m64.0000/100_100_130_ldc.of']
Workload-3: 
['/opt/spec2017/benchspec/CPU/519.lbm_r/run/run_base_refrate_gem5_se-m64.0000/lbm_r_base.gem5_se-m64', '3000', 'reference.dat', '0', '0', '/opt/spec2017/benchspec/CPU/519.lbm_r/run/run_base_refrate_gem5_se-m64.0000/100_100_130_ldc.of']
defense_enable:  True  detector:  MG  mitigation:  RFM  threshold:  800
mg_entries:  1700
rfm_maxacts_per_trefi:  79 rfm_per_trefi:  1 rfm_blast_radius:  2
Switch at curTick count:10000
warn: membus.master is deprecated. `master` is now called `mem_side_ports`
warn: No dot file generated. Please install pydot to generate the dot file and pdf.
info: Entering event queue @ 13719052595286.  Starting simulation...
warn: PowerState: Already in the requested power state, request ignored
Switched CPUS @ tick 13719052605286
switching cpus
**** REAL SIMULATION ****
info: Entering event queue @ 13719052605286.  Starting simulation...
13722385928619: Event_285: system.switch_cpus3 progress event, total committed:3219096, progress insts committed: 3219096, IPC: 0.321588
13722385928619: Event_284: system.switch_cpus2 progress event, total committed:3218274, progress insts committed: 3218274, IPC: 0.321506
13722385928619: Event_283: system.switch_cpus1 progress event, total committed:3206746, progress insts committed: 3206746, IPC: 0.320354
13722385928619: Event_282: system.switch_cpus0 progress event, total committed:3220692, progress insts committed: 3220692, IPC: 0.321747
13725719261952: Event_282: system.switch_cpus0 progress event, total committed:6079684, progress insts committed: 2858992, IPC: 0.285613
13725719261952: Event_283: system.switch_cpus1 progress event, total committed:6036023, progress insts committed: 2829277, IPC: 0.282645
13725719261952: Event_284: system.switch_cpus2 progress event, total committed:6079677, progress insts committed: 2861403, IPC: 0.285854
13725719261952: Event_285: system.switch_cpus3 progress event, total committed:6079625, progress insts committed: 2860529, IPC: 0.285767
13729052595285: Event_285: system.switch_cpus3 progress event, total committed:8838802, progress insts committed: 2759177, IPC: 0.275642
13729052595285: Event_284: system.switch_cpus2 progress event, total committed:8835610, progress insts committed: 2755933, IPC: 0.275318
13729052595285: Event_283: system.switch_cpus1 progress event, total committed:8789454, progress insts committed: 2753431, IPC: 0.275068
13729052595285: Event_282: system.switch_cpus0 progress event, total committed:8841171, progress insts committed: 2761487, IPC: 0.275873
13732385928618: Event_282: system.switch_cpus0 progress event, total committed:11804386, progress insts committed: 2963215, IPC: 0.296025
13732385928618: Event_283: system.switch_cpus1 progress event, total committed:11749087, progress insts committed: 2959633, IPC: 0.295667
13732385928618: Event_284: system.switch_cpus2 progress event, total committed:11795506, progress insts committed: 2959896, IPC: 0.295694
13732385928618: Event_285: system.switch_cpus3 progress event, total committed:11795506, progress insts committed: 2956704, IPC: 0.295375
13735719261951: Event_285: system.switch_cpus3 progress event, total committed:14650484, progress insts committed: 2854978, IPC: 0.285212
13735719261951: Event_284: system.switch_cpus2 progress event, total committed:14648096, progress insts committed: 2852590, IPC: 0.284974
13735719261951: Event_283: system.switch_cpus1 progress event, total committed:14582516, progress insts committed: 2833429, IPC: 00.28306
13735719261951: Event_282: system.switch_cpus0 progress event, total committed:14652325, progress insts committed: 2847939, IPC: 0.284509
13739052595284: Event_282: system.switch_cpus0 progress event, total committed:17367180, progress insts committed: 2714855, IPC: 0.271214
13739052595284: Event_283: system.switch_cpus1 progress event, total committed:17282401, progress insts committed: 2699885, IPC: 0.269719
13739052595284: Event_284: system.switch_cpus2 progress event, total committed:17365584, progress insts committed: 2717488, IPC: 0.271477
13739052595284: Event_285: system.switch_cpus3 progress event, total committed:17366893, progress insts committed: 2716409, IPC: 0.271369
13742385928617: Event_285: system.switch_cpus3 progress event, total committed:20311268, progress insts committed: 2944375, IPC: 0.294143
13742385928617: Event_284: system.switch_cpus2 progress event, total committed:20308318, progress insts committed: 2942734, IPC: 0.293979
13742385928617: Event_283: system.switch_cpus1 progress event, total committed:20209428, progress insts committed: 2927027, IPC: 00.29241
13742385928617: Event_282: system.switch_cpus0 progress event, total committed:20312045, progress insts committed: 2944865, IPC: 0.294192
13745719261950: Event_282: system.switch_cpus0 progress event, total committed:23176202, progress insts committed: 2864157, IPC: 0.286129
13745719261950: Event_283: system.switch_cpus1 progress event, total committed:23068223, progress insts committed: 2858795, IPC: 0.285594
13745719261950: Event_284: system.switch_cpus2 progress event, total committed:23172723, progress insts committed: 2864405, IPC: 0.286154
13745719261950: Event_285: system.switch_cpus3 progress event, total committed:23175670, progress insts committed: 2864402, IPC: 0.286154
13749052595283: Event_285: system.switch_cpus3 progress event, total committed:26234898, progress insts committed: 3059228, IPC: 0.305617
13749052595283: Event_284: system.switch_cpus2 progress event, total committed:26232770, progress insts committed: 3060047, IPC: 0.305699
13749052595283: Event_283: system.switch_cpus1 progress event, total committed:26126916, progress insts committed: 3058693, IPC: 0.305563
13749052595283: Event_282: system.switch_cpus0 progress event, total committed:26235962, progress insts committed: 3059760, IPC: 00.30567
13752385928616: Event_282: system.switch_cpus0 progress event, total committed:28983873, progress insts committed: 2747911, IPC: 0.274516
13752385928616: Event_283: system.switch_cpus1 progress event, total committed:28866778, progress insts committed: 2739862, IPC: 0.273712
13752385928616: Event_284: system.switch_cpus2 progress event, total committed:28986288, progress insts committed: 2753518, IPC: 0.275076
13752385928616: Event_285: system.switch_cpus3 progress event, total committed:28987352, progress insts committed: 2752454, IPC: 00.27497
13755719261949: Event_285: system.switch_cpus3 progress event, total committed:31796212, progress insts committed: 2808860, IPC: 0.280605
13755719261949: Event_284: system.switch_cpus2 progress event, total committed:31794336, progress insts committed: 2808048, IPC: 0.280524
13755719261949: Event_283: system.switch_cpus1 progress event, total committed:31646263, progress insts committed: 2779485, IPC: 0.277671
13755719261949: Event_282: system.switch_cpus0 progress event, total committed:31784266, progress insts committed: 2800393, IPC: 0.279759
13759052595282: Event_282: system.switch_cpus0 progress event, total committed:34492692, progress insts committed: 2708426, IPC: 0.270572
13759052595282: Event_283: system.switch_cpus1 progress event, total committed:34357872, progress insts committed: 2711609, IPC: 00.27089
13759052595282: Event_284: system.switch_cpus2 progress event, total committed:34497770, progress insts committed: 2703434, IPC: 0.270073
13759052595282: Event_285: system.switch_cpus3 progress event, total committed:34514503, progress insts committed: 2718291, IPC: 0.271557
13762385928615: Event_285: system.switch_cpus3 progress event, total committed:37448774, progress insts committed: 2934271, IPC: 0.293134
13762385928615: Event_284: system.switch_cpus2 progress event, total committed:37427494, progress insts committed: 2929724, IPC: 0.292679
13762385928615: Event_283: system.switch_cpus1 progress event, total committed:37291205, progress insts committed: 2933333, IPC: 00.29304
13762385928615: Event_282: system.switch_cpus0 progress event, total committed:37422211, progress insts committed: 2929519, IPC: 0.292659
13765719261948: Event_282: system.switch_cpus0 progress event, total committed:40162810, progress insts committed: 2740599, IPC: 0.273786
13765719261948: Event_283: system.switch_cpus1 progress event, total committed:40024148, progress insts committed: 2732943, IPC: 0.273021
13765719261948: Event_284: system.switch_cpus2 progress event, total committed:40173450, progress insts committed: 2745956, IPC: 0.274321
13765719261948: Event_285: system.switch_cpus3 progress event, total committed:40182823, progress insts committed: 2734049, IPC: 0.273131
13769052595281: Event_285: system.switch_cpus3 progress event, total committed:42949844, progress insts committed: 2767021, IPC: 0.276425
13769052595281: Event_284: system.switch_cpus2 progress event, total committed:42929096, progress insts committed: 2755646, IPC: 0.275289
13769052595281: Event_283: system.switch_cpus1 progress event, total committed:42774474, progress insts committed: 2750326, IPC: 0.274758
13769052595281: Event_282: system.switch_cpus0 progress event, total committed:42919226, progress insts committed: 2756416, IPC: 0.275366
13772385928614: Event_282: system.switch_cpus0 progress event, total committed:45865204, progress insts committed: 2945978, IPC: 0.294303
13772385928614: Event_283: system.switch_cpus1 progress event, total committed:45722831, progress insts committed: 2948357, IPC: 0.294541
13772385928614: Event_284: system.switch_cpus2 progress event, total committed:45872120, progress insts committed: 2943024, IPC: 0.294008
13772385928614: Event_285: system.switch_cpus3 progress event, total committed:45889473, progress insts committed: 2939629, IPC: 0.293669
13775719261947: Event_285: system.switch_cpus3 progress event, total committed:48647160, progress insts committed: 2757687, IPC: 0.275493
13775719261947: Event_284: system.switch_cpus2 progress event, total committed:48633863, progress insts committed: 2761743, IPC: 0.275898
13775719261947: Event_283: system.switch_cpus1 progress event, total committed:48473382, progress insts committed: 2750551, IPC: 00.27478
13775719261947: Event_282: system.switch_cpus0 progress event, total committed:48622159, progress insts committed: 2756955, IPC: 00.27542
13779052595280: Event_282: system.switch_cpus0 progress event, total committed:51555607, progress insts committed: 2933448, IPC: 0.293051
13779052595280: Event_283: system.switch_cpus1 progress event, total committed:51410561, progress insts committed: 2937179, IPC: 0.293424
13779052595280: Event_284: system.switch_cpus2 progress event, total committed:51572096, progress insts committed: 2938233, IPC: 0.293529
13779052595280: Event_285: system.switch_cpus3 progress event, total committed:51577706, progress insts committed: 2930546, IPC: 0.292762
13782385928613: Event_285: system.switch_cpus3 progress event, total committed:54324251, progress insts committed: 2746545, IPC: 00.27438
13782385928613: Event_284: system.switch_cpus2 progress event, total committed:54312530, progress insts committed: 2740434, IPC: 0.273769
13782385928613: Event_283: system.switch_cpus1 progress event, total committed:54140025, progress insts committed: 2729464, IPC: 0.272673
13782385928613: Event_282: system.switch_cpus0 progress event, total committed:54291210, progress insts committed: 2735603, IPC: 0.273287
13785719261946: Event_282: system.switch_cpus0 progress event, total committed:57250918, progress insts committed: 2959708, IPC: 0.295675
13785719261946: Event_283: system.switch_cpus1 progress event, total committed:57098588, progress insts committed: 2958563, IPC: 00.29556
13785719261946: Event_284: system.switch_cpus2 progress event, total committed:57269460, progress insts committed: 2956930, IPC: 0.295397
13785719261946: Event_285: system.switch_cpus3 progress event, total committed:57281164, progress insts committed: 2956913, IPC: 0.295396
13789052595279: Event_285: system.switch_cpus3 progress event, total committed:59963166, progress insts committed: 2682002, IPC: 0.267932
13789052595279: Event_284: system.switch_cpus2 progress event, total committed:59950398, progress insts committed: 2680938, IPC: 0.267826
13789052595279: Event_283: system.switch_cpus1 progress event, total committed:59769923, progress insts committed: 2671335, IPC: 0.266866
13789052595279: Event_282: system.switch_cpus0 progress event, total committed:59928054, progress insts committed: 2677136, IPC: 0.267446
13792385928612: Event_282: system.switch_cpus0 progress event, total committed:62710849, progress insts committed: 2782795, IPC: 0.278001
13792385928612: Event_283: system.switch_cpus1 progress event, total committed:62548534, progress insts committed: 2778611, IPC: 0.277583
13792385928612: Event_284: system.switch_cpus2 progress event, total committed:62733722, progress insts committed: 2783324, IPC: 0.278054
13792385928612: Event_285: system.switch_cpus3 progress event, total committed:62745965, progress insts committed: 2782799, IPC: 0.278002
13795719261945: Event_285: system.switch_cpus3 progress event, total committed:65370680, progress insts committed: 2624715, IPC: 0.262209
13795719261945: Event_284: system.switch_cpus2 progress event, total committed:65353656, progress insts committed: 2619934, IPC: 0.261731
13795719261945: Event_283: system.switch_cpus1 progress event, total committed:65163468, progress insts committed: 2614934, IPC: 0.261232
13795719261945: Event_282: system.switch_cpus0 progress event, total committed:65329294, progress insts committed: 2618445, IPC: 0.261583
13799052595278: Event_282: system.switch_cpus0 progress event, total committed:68100266, progress insts committed: 2770972, IPC: 00.27682
13799052595278: Event_283: system.switch_cpus1 progress event, total committed:67932906, progress insts committed: 2769438, IPC: 0.276667
13799052595278: Event_284: system.switch_cpus2 progress event, total committed:68128482, progress insts committed: 2774826, IPC: 0.277205
13799052595278: Event_285: system.switch_cpus3 progress event, total committed:68141290, progress insts committed: 2770610, IPC: 0.276784
13802385928611: Event_285: system.switch_cpus3 progress event, total committed:70765806, progress insts committed: 2624516, IPC: 0.262189
13802385928611: Event_284: system.switch_cpus2 progress event, total committed:70757446, progress insts committed: 2628964, IPC: 0.262634
13802385928611: Event_283: system.switch_cpus1 progress event, total committed:70556216, progress insts committed: 2623310, IPC: 0.262069
13802385928611: Event_282: system.switch_cpus0 progress event, total committed:70726835, progress insts committed: 2626569, IPC: 0.262394
13805719261944: Event_282: system.switch_cpus0 progress event, total committed:73482709, progress insts committed: 2755874, IPC: 0.275312
13805719261944: Event_283: system.switch_cpus1 progress event, total committed:73357142, progress insts committed: 2800926, IPC: 0.279813
13805719261944: Event_284: system.switch_cpus2 progress event, total committed:73483003, progress insts committed: 2725557, IPC: 0.272283
13805719261944: Event_285: system.switch_cpus3 progress event, total committed:73483230, progress insts committed: 2717424, IPC: 0.271471
13809052595277: Event_285: system.switch_cpus3 progress event, total committed:76223176, progress insts committed: 2739946, IPC: 0.273721
13809052595277: Event_284: system.switch_cpus2 progress event, total committed:76210582, progress insts committed: 2727579, IPC: 0.272485
13809052595277: Event_283: system.switch_cpus1 progress event, total committed:75998634, progress insts committed: 2641492, IPC: 0.263885
13809052595277: Event_282: system.switch_cpus0 progress event, total committed:76176491, progress insts committed: 2693782, IPC: 0.269109
13812385928610: Event_282: system.switch_cpus0 progress event, total committed:78895602, progress insts committed: 2719111, IPC: 0.271639
13812385928610: Event_283: system.switch_cpus1 progress event, total committed:78707350, progress insts committed: 2708716, IPC: 0.270601
13812385928610: Event_284: system.switch_cpus2 progress event, total committed:78928828, progress insts committed: 2718246, IPC: 0.271553
13812385928610: Event_285: system.switch_cpus3 progress event, total committed:78939555, progress insts committed: 2716379, IPC: 0.271366
13815719261943: Event_285: system.switch_cpus3 progress event, total committed:81891940, progress insts committed: 2952385, IPC: 0.294943
13815719261943: Event_284: system.switch_cpus2 progress event, total committed:81868000, progress insts committed: 2939172, IPC: 0.293623
13815719261943: Event_283: system.switch_cpus1 progress event, total committed:81654098, progress insts committed: 2946748, IPC: 00.29438
13815719261943: Event_282: system.switch_cpus0 progress event, total committed:81845252, progress insts committed: 2949650, IPC: 00.29467
13819052595276: Event_282: system.switch_cpus0 progress event, total committed:84571282, progress insts committed: 2726030, IPC: 00.27233
13819052595276: Event_283: system.switch_cpus1 progress event, total committed:84366780, progress insts committed: 2712682, IPC: 0.270997
13819052595276: Event_284: system.switch_cpus2 progress event, total committed:84593934, progress insts committed: 2725934, IPC: 0.272321
13819052595276: Event_285: system.switch_cpus3 progress event, total committed:84613956, progress insts committed: 2722016, IPC: 0.271929
13822385928609: Event_285: system.switch_cpus3 progress event, total committed:87388526, progress insts committed: 2774570, IPC: 00.27718
13822385928609: Event_284: system.switch_cpus2 progress event, total committed:87363256, progress insts committed: 2769322, IPC: 0.276655
13822385928609: Event_283: system.switch_cpus1 progress event, total committed:87142704, progress insts committed: 2775924, IPC: 0.277315
13822385928609: Event_282: system.switch_cpus0 progress event, total committed:87344501, progress insts committed: 2773219, IPC: 0.277045
13825719261942: Event_282: system.switch_cpus0 progress event, total committed:89965521, progress insts committed: 2621020, IPC: 00.26184
13825719261942: Event_283: system.switch_cpus1 progress event, total committed:89750644, progress insts committed: 2607940, IPC: 0.260533
13825719261942: Event_284: system.switch_cpus2 progress event, total committed:89987078, progress insts committed: 2623822, IPC: 00.26212
13825719261942: Event_285: system.switch_cpus3 progress event, total committed:90009234, progress insts committed: 2620708, IPC: 0.261809
13829052595275: Event_285: system.switch_cpus3 progress event, total committed:92727298, progress insts committed: 2718064, IPC: 0.271535
13829052595275: Event_284: system.switch_cpus2 progress event, total committed:92703953, progress insts committed: 2716875, IPC: 0.271416
13829052595275: Event_283: system.switch_cpus1 progress event, total committed:92466825, progress insts committed: 2716181, IPC: 0.271346
13829052595275: Event_282: system.switch_cpus0 progress event, total committed:92684092, progress insts committed: 2718571, IPC: 0.271585
13832385928608: Event_282: system.switch_cpus0 progress event, total committed:95270883, progress insts committed: 2586791, IPC: 00.25842
13832385928608: Event_283: system.switch_cpus1 progress event, total committed:95046210, progress insts committed: 2579385, IPC: 0.257681
13832385928608: Event_284: system.switch_cpus2 progress event, total committed:95279796, progress insts committed: 2575843, IPC: 0.257327
13832385928608: Event_285: system.switch_cpus3 progress event, total committed:95312780, progress insts committed: 2585482, IPC: 00.25829
13835719261941: Event_285: system.switch_cpus3 progress event, total committed:98049823, progress insts committed: 2737043, IPC: 0.273431
13835719261941: Event_284: system.switch_cpus2 progress event, total committed:98027392, progress insts committed: 2747596, IPC: 0.274485
13835719261941: Event_283: system.switch_cpus1 progress event, total committed:97783755, progress insts committed: 2737545, IPC: 0.273481
13835719261941: Event_282: system.switch_cpus0 progress event, total committed:98006904, progress insts committed: 2736021, IPC: 0.273328
13839052595274: Event_282: system.switch_cpus0 progress event, total committed:100657936, progress insts committed: 2651032, IPC: 0.264838
13839052595274: Event_283: system.switch_cpus1 progress event, total committed:100420233, progress insts committed: 2636478, IPC: 0.263384
13839052595274: Event_284: system.switch_cpus2 progress event, total committed:100668768, progress insts committed: 2641376, IPC: 0.263873
13839052595274: Event_285: system.switch_cpus3 progress event, total committed:100698724, progress insts committed: 2648901, IPC: 0.264625
13842385928607: Event_285: system.switch_cpus3 progress event, total committed:103549888, progress insts committed: 2851164, IPC: 0.284831
13842385928607: Event_284: system.switch_cpus2 progress event, total committed:103529558, progress insts committed: 2860790, IPC: 0.285793
13842385928607: Event_283: system.switch_cpus1 progress event, total committed:103280866, progress insts committed: 2860633, IPC: 0.285777
13842385928607: Event_282: system.switch_cpus0 progress event, total committed:103512776, progress insts committed: 2854840, IPC: 0.285199
13845719261940: Event_282: system.switch_cpus0 progress event, total committed:106186556, progress insts committed: 2673780, IPC: 0.267111
13845719261940: Event_283: system.switch_cpus1 progress event, total committed:105952161, progress insts committed: 2671295, IPC: 0.266862
13845719261940: Event_284: system.switch_cpus2 progress event, total committed:106207536, progress insts committed: 2677978, IPC: 00.26753
13845719261940: Event_285: system.switch_cpus3 progress event, total committed:106230826, progress insts committed: 2680938, IPC: 0.267826
13849052595273: Event_285: system.switch_cpus3 progress event, total committed:109085842, progress insts committed: 2855016, IPC: 0.285216
13849052595273: Event_284: system.switch_cpus2 progress event, total committed:109053922, progress insts committed: 2846386, IPC: 0.284354
13849052595273: Event_283: system.switch_cpus1 progress event, total committed:108800652, progress insts committed: 2848491, IPC: 0.284564
13849052595273: Event_282: system.switch_cpus0 progress event, total committed:109040153, progress insts committed: 2853597, IPC: 0.285074
13852385928606: Event_282: system.switch_cpus0 progress event, total committed:111693782, progress insts committed: 2653629, IPC: 0.265098
13852385928606: Event_283: system.switch_cpus1 progress event, total committed:111452748, progress insts committed: 2652096, IPC: 0.264944
13852385928606: Event_284: system.switch_cpus2 progress event, total committed:111715062, progress insts committed: 2661140, IPC: 0.265848
13852385928606: Event_285: system.switch_cpus3 progress event, total committed:111729250, progress insts committed: 2643408, IPC: 0.264076
13855719261939: Event_285: system.switch_cpus3 progress event, total committed:114538700, progress insts committed: 2809450, IPC: 0.280664
13855719261939: Event_284: system.switch_cpus2 progress event, total committed:114538503, progress insts committed: 2823441, IPC: 0.282062
13855719261939: Event_283: system.switch_cpus1 progress event, total committed:114371545, progress insts committed: 2918797, IPC: 0.291588
13855719261939: Event_282: system.switch_cpus0 progress event, total committed:114538220, progress insts committed: 2844438, IPC: 0.284159
13859052595272: Event_282: system.switch_cpus0 progress event, total committed:117171785, progress insts committed: 2633565, IPC: 0.263093
13859052595272: Event_283: system.switch_cpus1 progress event, total committed:116920848, progress insts committed: 2549303, IPC: 0.254675
13859052595272: Event_284: system.switch_cpus2 progress event, total committed:117205796, progress insts committed: 2667293, IPC: 0.266463
13859052595272: Event_285: system.switch_cpus3 progress event, total committed:117218146, progress insts committed: 2679446, IPC: 0.267677
13862385928605: Event_285: system.switch_cpus3 progress event, total committed:119792988, progress insts committed: 2574842, IPC: 0.257227
13862385928605: Event_284: system.switch_cpus2 progress event, total committed:119779284, progress insts committed: 2573488, IPC: 0.257091
13862385928605: Event_283: system.switch_cpus1 progress event, total committed:119678238, progress insts committed: 2757390, IPC: 0.275463
13862385928605: Event_282: system.switch_cpus0 progress event, total committed:119735131, progress insts committed: 2563346, IPC: 0.256078
13865719261938: Event_282: system.switch_cpus0 progress event, total committed:122539248, progress insts committed: 2804117, IPC: 0.280131
13865719261938: Event_283: system.switch_cpus1 progress event, total committed:122280910, progress insts committed: 2602672, IPC: 0.260007
13865719261938: Event_284: system.switch_cpus2 progress event, total committed:122561199, progress insts committed: 2781915, IPC: 0.277913
13865719261938: Event_285: system.switch_cpus3 progress event, total committed:122598946, progress insts committed: 2805958, IPC: 0.280315
13869052595271: Event_285: system.switch_cpus3 progress event, total committed:125074268, progress insts committed: 2475322, IPC: 0.247285
13869052595271: Event_284: system.switch_cpus2 progress event, total committed:125037381, progress insts committed: 2476182, IPC: 0.247371
13869052595271: Event_283: system.switch_cpus1 progress event, total committed:124811692, progress insts committed: 2530782, IPC: 0.252825
13869052595271: Event_282: system.switch_cpus0 progress event, total committed:125014910, progress insts committed: 2475662, IPC: 0.247319
13872385928604: Event_282: system.switch_cpus0 progress event, total committed:127738590, progress insts committed: 2723680, IPC: 0.272096
13872385928604: Event_283: system.switch_cpus1 progress event, total committed:127472788, progress insts committed: 2661096, IPC: 0.265843
13872385928604: Event_284: system.switch_cpus2 progress event, total committed:127761529, progress insts committed: 2724148, IPC: 0.272142
13872385928604: Event_285: system.switch_cpus3 progress event, total committed:127793850, progress insts committed: 2719582, IPC: 0.271686
13875719261937: Event_285: system.switch_cpus3 progress event, total committed:130358712, progress insts committed: 2564862, IPC: 00.25623
13875719261937: Event_284: system.switch_cpus2 progress event, total committed:130312431, progress insts committed: 2550902, IPC: 0.254835
13875719261937: Event_283: system.switch_cpus1 progress event, total committed:130007198, progress insts committed: 2534410, IPC: 0.253188
13875719261937: Event_282: system.switch_cpus0 progress event, total committed:130292388, progress insts committed: 2553798, IPC: 0.255124
13879052595270: Event_282: system.switch_cpus0 progress event, total committed:133068799, progress insts committed: 2776411, IPC: 0.277363
13879052595270: Event_283: system.switch_cpus1 progress event, total committed:132784168, progress insts committed: 2776970, IPC: 0.277419
13879052595270: Event_284: system.switch_cpus2 progress event, total committed:133086466, progress insts committed: 2774035, IPC: 0.277126
13879052595270: Event_285: system.switch_cpus3 progress event, total committed:133129026, progress insts committed: 2770314, IPC: 0.276754
13882385928603: Event_285: system.switch_cpus3 progress event, total committed:135755524, progress insts committed: 2626498, IPC: 0.262387
13882385928603: Event_284: system.switch_cpus2 progress event, total committed:135711965, progress insts committed: 2625499, IPC: 0.262287
13882385928603: Event_283: system.switch_cpus1 progress event, total committed:135398461, progress insts committed: 2614293, IPC: 0.261168
13882385928603: Event_282: system.switch_cpus0 progress event, total committed:135690049, progress insts committed: 2621250, IPC: 0.261863
13885719261936: Event_282: system.switch_cpus0 progress event, total committed:138486290, progress insts committed: 2796241, IPC: 0.279344
13885719261936: Event_283: system.switch_cpus1 progress event, total committed:138210562, progress insts committed: 2812101, IPC: 0.280929
13885719261936: Event_284: system.switch_cpus2 progress event, total committed:138524651, progress insts committed: 2812686, IPC: 0.280987
13885719261936: Event_285: system.switch_cpus3 progress event, total committed:138551499, progress insts committed: 2795975, IPC: 0.279318
13889052595269: Event_285: system.switch_cpus3 progress event, total committed:141240758, progress insts committed: 2689259, IPC: 0.268657
13889052595269: Event_284: system.switch_cpus2 progress event, total committed:141206423, progress insts committed: 2681772, IPC: 0.267909
13889052595269: Event_283: system.switch_cpus1 progress event, total committed:140887301, progress insts committed: 2676739, IPC: 0.267406
13889052595269: Event_282: system.switch_cpus0 progress event, total committed:141172268, progress insts committed: 2685978, IPC: 0.268329
13892385928602: Event_282: system.switch_cpus0 progress event, total committed:144021432, progress insts committed: 2849164, IPC: 0.284631
13892385928602: Event_283: system.switch_cpus1 progress event, total committed:143728255, progress insts committed: 2840954, IPC: 0.283811
13892385928602: Event_284: system.switch_cpus2 progress event, total committed:144055874, progress insts committed: 2849451, IPC: 00.28466
13892385928602: Event_285: system.switch_cpus3 progress event, total committed:144078574, progress insts committed: 2837816, IPC: 0.283498
13895719261935: Event_285: system.switch_cpus3 progress event, total committed:146734935, progress insts committed: 2656361, IPC: 00.26537
13895719261935: Event_284: system.switch_cpus2 progress event, total committed:146703296, progress insts committed: 2647422, IPC: 0.264477
13895719261935: Event_283: system.switch_cpus1 progress event, total committed:146378510, progress insts committed: 2650255, IPC: 00.26476
13895719261935: Event_282: system.switch_cpus0 progress event, total committed:146669376, progress insts committed: 2647944, IPC: 00.26453
13899052595268: Event_282: system.switch_cpus0 progress event, total committed:149470131, progress insts committed: 2800755, IPC: 0.279795
13899052595268: Event_283: system.switch_cpus1 progress event, total committed:149182692, progress insts committed: 2804182, IPC: 0.280138
13899052595268: Event_284: system.switch_cpus2 progress event, total committed:149518323, progress insts committed: 2815027, IPC: 0.281221
13899052595268: Event_285: system.switch_cpus3 progress event, total committed:149538341, progress insts committed: 2803406, IPC: 00.28006
13902385928601: Event_285: system.switch_cpus3 progress event, total committed:152197754, progress insts committed: 2659413, IPC: 0.265675
13902385928601: Event_284: system.switch_cpus2 progress event, total committed:152177130, progress insts committed: 2658807, IPC: 0.265615
13902385928601: Event_283: system.switch_cpus1 progress event, total committed:151831134, progress insts committed: 2648442, IPC: 0.264579
13902385928601: Event_282: system.switch_cpus0 progress event, total committed:152135282, progress insts committed: 2665151, IPC: 0.266249
13905719261934: Event_282: system.switch_cpus0 progress event, total committed:154935502, progress insts committed: 2800220, IPC: 0.279742
13905719261934: Event_283: system.switch_cpus1 progress event, total committed:154640622, progress insts committed: 2809488, IPC: 0.280668
13905719261934: Event_284: system.switch_cpus2 progress event, total committed:154974984, progress insts committed: 2797854, IPC: 0.279506
13905719261934: Event_285: system.switch_cpus3 progress event, total committed:155009032, progress insts committed: 2811278, IPC: 0.280847
13909052595267: Event_285: system.switch_cpus3 progress event, total committed:157638211, progress insts committed: 2629179, IPC: 0.262655
13909052595267: Event_284: system.switch_cpus2 progress event, total committed:157608460, progress insts committed: 2633476, IPC: 0.263084
13909052595267: Event_283: system.switch_cpus1 progress event, total committed:157256035, progress insts committed: 2615413, IPC: 00.26128
13909052595267: Event_282: system.switch_cpus0 progress event, total committed:157562594, progress insts committed: 2627092, IPC: 0.262446
13912385928600: Event_282: system.switch_cpus0 progress event, total committed:160359164, progress insts committed: 2796570, IPC: 0.279377
13912385928600: Event_283: system.switch_cpus1 progress event, total committed:160047223, progress insts committed: 2791188, IPC: 00.27884
13912385928600: Event_284: system.switch_cpus2 progress event, total committed:160408034, progress insts committed: 2799574, IPC: 0.279677
13912385928600: Event_285: system.switch_cpus3 progress event, total committed:160423821, progress insts committed: 2785610, IPC: 0.278282
13915719261933: Event_285: system.switch_cpus3 progress event, total committed:163205000, progress insts committed: 2781179, IPC: 00.27784
13915719261933: Event_284: system.switch_cpus2 progress event, total committed:163191658, progress insts committed: 2783624, IPC: 0.278084
13915719261933: Event_283: system.switch_cpus1 progress event, total committed:162829432, progress insts committed: 2782209, IPC: 0.277943
13915719261933: Event_282: system.switch_cpus0 progress event, total committed:163143477, progress insts committed: 2784313, IPC: 0.278153
13919052595266: Event_282: system.switch_cpus0 progress event, total committed:165900837, progress insts committed: 2757360, IPC: 00.27546
13919052595266: Event_283: system.switch_cpus1 progress event, total committed:165864262, progress insts committed: 3034830, IPC: 00.30318
13919052595266: Event_284: system.switch_cpus2 progress event, total committed:165943815, progress insts committed: 2752157, IPC: 00.27494
13919052595266: Event_285: system.switch_cpus3 progress event, total committed:165963254, progress insts committed: 2758254, IPC: 00.27555
13922385928599: Event_285: system.switch_cpus3 progress event, total committed:168482958, progress insts committed: 2519704, IPC: 0.251718
13922385928599: Event_284: system.switch_cpus2 progress event, total committed:168473551, progress insts committed: 2529736, IPC: 0.252721
13922385928599: Event_283: system.switch_cpus1 progress event, total committed:168146848, progress insts committed: 2282586, IPC: 00.22803
13922385928599: Event_282: system.switch_cpus0 progress event, total committed:168437225, progress insts committed: 2536388, IPC: 0.253385
13925719261932: Event_282: system.switch_cpus0 progress event, total committed:170327354, progress insts committed: 1890129, IPC: 0.188824
13925719261932: Event_283: system.switch_cpus1 progress event, total committed:170323405, progress insts committed: 2176557, IPC: 0.217438
13925719261932: Event_284: system.switch_cpus2 progress event, total committed:170327916, progress insts committed: 1854365, IPC: 0.185251
13925719261932: Event_285: system.switch_cpus3 progress event, total committed:170328146, progress insts committed: 1845188, IPC: 0.184334
13929052595265: Event_285: system.switch_cpus3 progress event, total committed:170501932, progress insts committed: 173786, IPC: 0.0173612
13929052595265: Event_284: system.switch_cpus2 progress event, total committed:170501704, progress insts committed: 173788, IPC: 0.0173614
13929052595265: Event_283: system.switch_cpus1 progress event, total committed:170497157, progress insts committed: 173752, IPC: 0.0173578
13929052595265: Event_282: system.switch_cpus0 progress event, total committed:170501139, progress insts committed: 173785, IPC: 0.0173611
13932385928598: Event_282: system.switch_cpus0 progress event, total committed:170675211, progress insts committed: 174072, IPC: 0.0173898
13932385928598: Event_283: system.switch_cpus1 progress event, total committed:170671222, progress insts committed: 174065, IPC: 0.0173891
13932385928598: Event_284: system.switch_cpus2 progress event, total committed:170675779, progress insts committed: 174075, IPC: 0.0173901
13932385928598: Event_285: system.switch_cpus3 progress event, total committed:170676007, progress insts committed: 174075, IPC: 0.0173901
13935719261931: Event_285: system.switch_cpus3 progress event, total committed:170850085, progress insts committed: 174078, IPC: 0.0173904
13935719261931: Event_284: system.switch_cpus2 progress event, total committed:170849857, progress insts committed: 174078, IPC: 0.0173904
13935719261931: Event_283: system.switch_cpus1 progress event, total committed:170845307, progress insts committed: 174085, IPC: 0.0173911
13935719261931: Event_282: system.switch_cpus0 progress event, total committed:170849289, progress insts committed: 174078, IPC: 0.0173904
13939052595264: Event_282: system.switch_cpus0 progress event, total committed:171011720, progress insts committed: 162431, IPC: 0.0162269
13939052595264: Event_283: system.switch_cpus1 progress event, total committed:171007622, progress insts committed: 162315, IPC: 0.0162153
13939052595264: Event_284: system.switch_cpus2 progress event, total committed:171012404, progress insts committed: 162547, IPC: 0.0162384
13939052595264: Event_285: system.switch_cpus3 progress event, total committed:171012746, progress insts committed: 162661, IPC: 0.0162498
13942385928597: Event_285: system.switch_cpus3 progress event, total committed:171189930, progress insts committed: 177184, IPC: 0.0177007
13942385928597: Event_284: system.switch_cpus2 progress event, total committed:171189588, progress insts committed: 177184, IPC: 0.0177007
13942385928597: Event_283: system.switch_cpus1 progress event, total committed:171184828, progress insts committed: 177206, IPC: 0.0177029
13942385928597: Event_282: system.switch_cpus0 progress event, total committed:171188931, progress insts committed: 177211, IPC: 0.0177034
13945719261930: Event_282: system.switch_cpus0 progress event, total committed:171365183, progress insts committed: 176252, IPC: 0.0176076
13945719261930: Event_283: system.switch_cpus1 progress event, total committed:171361085, progress insts committed: 176257, IPC: 0.0176081
13945719261930: Event_284: system.switch_cpus2 progress event, total committed:171365859, progress insts committed: 176271, IPC: 0.0176095
13945719261930: Event_285: system.switch_cpus3 progress event, total committed:171366194, progress insts committed: 176264, IPC: 0.0176088
13949052595263: Event_285: system.switch_cpus3 progress event, total committed:172944627, progress insts committed: 1578433, IPC: 0.157685
13949052595263: Event_284: system.switch_cpus2 progress event, total committed:172923348, progress insts committed: 1557489, IPC: 0.155593
13949052595263: Event_283: system.switch_cpus1 progress event, total committed:172570900, progress insts committed: 1209815, IPC: 0.120861
13949052595263: Event_282: system.switch_cpus0 progress event, total committed:172872179, progress insts committed: 1506996, IPC: 0.150549
13952385928596: Event_282: system.switch_cpus0 progress event, total committed:175279006, progress insts committed: 2406827, IPC: 0.240442
13952385928596: Event_283: system.switch_cpus1 progress event, total committed:174982734, progress insts committed: 2411834, IPC: 0.240942
13952385928596: Event_284: system.switch_cpus2 progress event, total committed:175331881, progress insts committed: 2408533, IPC: 0.240612
13952385928596: Event_285: system.switch_cpus3 progress event, total committed:175357646, progress insts committed: 2413019, IPC: 0.241061
13955719261929: Event_285: system.switch_cpus3 progress event, total committed:177961234, progress insts committed: 2603588, IPC: 0.260098
13955719261929: Event_284: system.switch_cpus2 progress event, total committed:177934111, progress insts committed: 2602230, IPC: 0.259963
13955719261929: Event_283: system.switch_cpus1 progress event, total committed:177517510, progress insts committed: 2534776, IPC: 0.253224
13955719261929: Event_282: system.switch_cpus0 progress event, total committed:177866478, progress insts committed: 2587472, IPC: 0.258488
13959052595262: Event_282: system.switch_cpus0 progress event, total committed:180741050, progress insts committed: 2874572, IPC: 00.28717
13959052595262: Event_283: system.switch_cpus1 progress event, total committed:180395758, progress insts committed: 2878248, IPC: 0.287537
13959052595262: Event_284: system.switch_cpus2 progress event, total committed:180807664, progress insts committed: 2873553, IPC: 0.287068
13959052595262: Event_285: system.switch_cpus3 progress event, total committed:180834984, progress insts committed: 2873750, IPC: 0.287088
13962385928595: Event_285: system.switch_cpus3 progress event, total committed:183598422, progress insts committed: 2763438, IPC: 0.276067
13962385928595: Event_284: system.switch_cpus2 progress event, total committed:183563525, progress insts committed: 2755861, IPC: 0.275311
13962385928595: Event_283: system.switch_cpus1 progress event, total committed:183144664, progress insts committed: 2748906, IPC: 0.274616
13962385928595: Event_282: system.switch_cpus0 progress event, total committed:183510124, progress insts committed: 2769074, IPC: 00.27663
13965719261928: Event_282: system.switch_cpus0 progress event, total committed:186245844, progress insts committed: 2735720, IPC: 0.273298
13965719261928: Event_283: system.switch_cpus1 progress event, total committed:186131397, progress insts committed: 2986733, IPC: 0.298375
13965719261928: Event_284: system.switch_cpus2 progress event, total committed:186299935, progress insts committed: 2736410, IPC: 0.273367
13965719261928: Event_285: system.switch_cpus3 progress event, total committed:186331610, progress insts committed: 2733188, IPC: 0.273045
13969052595261: Event_285: system.switch_cpus3 progress event, total committed:189217884, progress insts committed: 2886274, IPC: 0.288339
13969052595261: Event_284: system.switch_cpus2 progress event, total committed:189198444, progress insts committed: 2898509, IPC: 0.289561
13969052595261: Event_283: system.switch_cpus1 progress event, total committed:188758100, progress insts committed: 2626703, IPC: 0.262408
13969052595261: Event_282: system.switch_cpus0 progress event, total committed:189138214, progress insts committed: 2892370, IPC: 0.288948
13972385928594: Event_282: system.switch_cpus0 progress event, total committed:191841252, progress insts committed: 2703038, IPC: 0.270033
13972385928594: Event_283: system.switch_cpus1 progress event, total committed:191444862, progress insts committed: 2686762, IPC: 0.268408
13972385928594: Event_284: system.switch_cpus2 progress event, total committed:191898893, progress insts committed: 2700449, IPC: 0.269775
13972385928594: Event_285: system.switch_cpus3 progress event, total committed:191924958, progress insts committed: 2707074, IPC: 0.270437
13975719261927: Event_285: system.switch_cpus3 progress event, total committed:194761644, progress insts committed: 2836686, IPC: 0.283385
13975719261927: Event_284: system.switch_cpus2 progress event, total committed:194736108, progress insts committed: 2837215, IPC: 0.283438
13975719261927: Event_283: system.switch_cpus1 progress event, total committed:194280222, progress insts committed: 2835360, IPC: 0.283252
13975719261927: Event_282: system.switch_cpus0 progress event, total committed:194669494, progress insts committed: 2828242, IPC: 0.282541
13979052595260: Event_282: system.switch_cpus0 progress event, total committed:197344496, progress insts committed: 2675002, IPC: 0.267233
13979052595260: Event_283: system.switch_cpus1 progress event, total committed:196940654, progress insts committed: 2660432, IPC: 0.265777
13979052595260: Event_284: system.switch_cpus2 progress event, total committed:197411726, progress insts committed: 2675618, IPC: 0.267294
13979052595260: Event_285: system.switch_cpus3 progress event, total committed:197443410, progress insts committed: 2681766, IPC: 0.267908
13982385928593: Event_285: system.switch_cpus3 progress event, total committed:200405114, progress insts committed: 2961704, IPC: 0.295874
13982385928593: Event_284: system.switch_cpus2 progress event, total committed:200373474, progress insts committed: 2961748, IPC: 0.295879
13982385928593: Event_283: system.switch_cpus1 progress event, total committed:199901342, progress insts committed: 2960688, IPC: 0.295773
13982385928593: Event_282: system.switch_cpus0 progress event, total committed:200312849, progress insts committed: 2968353, IPC: 0.296538
13985719261926: Event_282: system.switch_cpus0 progress event, total committed:202996320, progress insts committed: 2683471, IPC: 0.268079
13985719261926: Event_283: system.switch_cpus1 progress event, total committed:202583108, progress insts committed: 2681766, IPC: 0.267908
13985719261926: Event_284: system.switch_cpus2 progress event, total committed:203067428, progress insts committed: 2693954, IPC: 0.269126
13985719261926: Event_285: system.switch_cpus3 progress event, total committed:203099769, progress insts committed: 2694655, IPC: 0.269196
13989052595259: Event_285: system.switch_cpus3 progress event, total committed:205931077, progress insts committed: 2831308, IPC: 0.282848
13989052595259: Event_284: system.switch_cpus2 progress event, total committed:205891060, progress insts committed: 2823632, IPC: 0.282081
13989052595259: Event_283: system.switch_cpus1 progress event, total committed:205415248, progress insts committed: 2832140, IPC: 0.282931
13989052595259: Event_282: system.switch_cpus0 progress event, total committed:205822608, progress insts committed: 2826288, IPC: 0.282346
13992385928592: Event_282: system.switch_cpus0 progress event, total committed:208365534, progress insts committed: 2542926, IPC: 0.254038
13992385928592: Event_283: system.switch_cpus1 progress event, total committed:207943160, progress insts committed: 2527912, IPC: 0.252538
13992385928592: Event_284: system.switch_cpus2 progress event, total committed:208438736, progress insts committed: 2547676, IPC: 0.254513
13992385928592: Event_285: system.switch_cpus3 progress event, total committed:208479734, progress insts committed: 2548657, IPC: 0.254611
13995719261925: Event_285: system.switch_cpus3 progress event, total committed:211010482, progress insts committed: 2530748, IPC: 0.252822
13995719261925: Event_284: system.switch_cpus2 progress event, total committed:210973128, progress insts committed: 2534392, IPC: 0.253186
13995719261925: Event_283: system.switch_cpus1 progress event, total committed:210476486, progress insts committed: 2533326, IPC: 0.253079
13995719261925: Event_282: system.switch_cpus0 progress event, total committed:210897442, progress insts committed: 2531908, IPC: 0.252938
13999052595258: Event_282: system.switch_cpus0 progress event, total committed:213420836, progress insts committed: 2523394, IPC: 0.252087
13999052595258: Event_283: system.switch_cpus1 progress event, total committed:212982999, progress insts committed: 2506513, IPC: 0.250401
13999052595258: Event_284: system.switch_cpus2 progress event, total committed:213496354, progress insts committed: 2523226, IPC: 00.25207
13999052595258: Event_285: system.switch_cpus3 progress event, total committed:213531720, progress insts committed: 2521238, IPC: 0.251872
14002385928591: Event_285: system.switch_cpus3 progress event, total committed:216340288, progress insts committed: 2808568, IPC: 0.280576
14002385928591: Event_284: system.switch_cpus2 progress event, total committed:216300441, progress insts committed: 2804087, IPC: 0.280128
14002385928591: Event_283: system.switch_cpus1 progress event, total committed:215789117, progress insts committed: 2806118, IPC: 0.280331
14002385928591: Event_282: system.switch_cpus0 progress event, total committed:216235378, progress insts committed: 2814542, IPC: 0.281173
14005719261924: Event_282: system.switch_cpus0 progress event, total committed:218778841, progress insts committed: 2543463, IPC: 0.254092
14005719261924: Event_283: system.switch_cpus1 progress event, total committed:218493179, progress insts committed: 2704062, IPC: 0.270136
14005719261924: Event_284: system.switch_cpus2 progress event, total committed:218848647, progress insts committed: 2548206, IPC: 0.254566
14005719261924: Event_285: system.switch_cpus3 progress event, total committed:218891031, progress insts committed: 2550743, IPC: 0.254819
14009052595257: Event_285: system.switch_cpus3 progress event, total committed:221731141, progress insts committed: 2840110, IPC: 0.283727
14009052595257: Event_284: system.switch_cpus2 progress event, total committed:221686379, progress insts committed: 2837732, IPC: 0.283489
14009052595257: Event_283: system.switch_cpus1 progress event, total committed:221157997, progress insts committed: 2664818, IPC: 0.266215
14009052595257: Event_282: system.switch_cpus0 progress event, total committed:221610981, progress insts committed: 2832140, IPC: 0.282931
14012385928590: Event_282: system.switch_cpus0 progress event, total committed:224024076, progress insts committed: 2413095, IPC: 0.241068
14012385928590: Event_283: system.switch_cpus1 progress event, total committed:223743778, progress insts committed: 2585781, IPC: 00.25832
14012385928590: Event_284: system.switch_cpus2 progress event, total committed:224086700, progress insts committed: 2400321, IPC: 0.239792
14012385928590: Event_285: system.switch_cpus3 progress event, total committed:224146089, progress insts committed: 2414948, IPC: 0.241253
14015719261923: Event_285: system.switch_cpus3 progress event, total committed:227054659, progress insts committed: 2908570, IPC: 0.290566
14015719261923: Event_284: system.switch_cpus2 progress event, total committed:227053975, progress insts committed: 2967275, IPC: 0.296431
14015719261923: Event_283: system.switch_cpus1 progress event, total committed:226526044, progress insts committed: 2782266, IPC: 0.277948
14015719261923: Event_282: system.switch_cpus0 progress event, total committed:227001702, progress insts committed: 2977626, IPC: 0.297465
14019052595256: Event_282: system.switch_cpus0 progress event, total committed:229502683, progress insts committed: 2500981, IPC: 0.249848
14019052595256: Event_283: system.switch_cpus1 progress event, total committed:229018035, progress insts committed: 2491991, IPC: 00.24895
14019052595256: Event_284: system.switch_cpus2 progress event, total committed:229574907, progress insts committed: 2520932, IPC: 0.251841
14019052595256: Event_285: system.switch_cpus3 progress event, total committed:229627157, progress insts committed: 2572498, IPC: 0.256993
14022385928589: Event_285: system.switch_cpus3 progress event, total committed:232406743, progress insts committed: 2779586, IPC: 0.277681
14022385928589: Event_284: system.switch_cpus2 progress event, total committed:232355025, progress insts committed: 2780118, IPC: 0.277734
14022385928589: Event_283: system.switch_cpus1 progress event, total committed:232039611, progress insts committed: 3021576, IPC: 0.301855
14022385928589: Event_282: system.switch_cpus0 progress event, total committed:232273766, progress insts committed: 2771083, IPC: 0.276831
14025719261922: Event_282: system.switch_cpus0 progress event, total committed:234866354, progress insts committed: 2592588, IPC: 0000.259
14025719261922: Event_283: system.switch_cpus1 progress event, total committed:234364653, progress insts committed: 2325042, IPC: 0.232272
14025719261922: Event_284: system.switch_cpus2 progress event, total committed:234929582, progress insts committed: 2574557, IPC: 0.257198
14025719261922: Event_285: system.switch_cpus3 progress event, total committed:235010028, progress insts committed: 2603285, IPC: 0.260068
14029052595255: Event_285: system.switch_cpus3 progress event, total committed:237750374, progress insts committed: 2740346, IPC: 0.273761
14029052595255: Event_284: system.switch_cpus2 progress event, total committed:237675006, progress insts committed: 2745424, IPC: 0.274268
14029052595255: Event_283: system.switch_cpus1 progress event, total committed:237093582, progress insts committed: 2728929, IPC: 00.27262
14029052595255: Event_282: system.switch_cpus0 progress event, total committed:237607900, progress insts committed: 2741546, IPC: 00.27388
14032385928588: Event_282: system.switch_cpus0 progress event, total committed:239984530, progress insts committed: 2376630, IPC: 0.237425
14032385928588: Event_283: system.switch_cpus1 progress event, total committed:239473811, progress insts committed: 2380229, IPC: 0.237785
14032385928588: Event_284: system.switch_cpus2 progress event, total committed:240042387, progress insts committed: 2367381, IPC: 0.236501
14032385928588: Event_285: system.switch_cpus3 progress event, total committed:240118404, progress insts committed: 2368030, IPC: 0.236566
14035719261921: Event_285: system.switch_cpus3 progress event, total committed:242747455, progress insts committed: 2629051, IPC: 0.262642
14035719261921: Event_284: system.switch_cpus2 progress event, total committed:242729400, progress insts committed: 2687013, IPC: 0.268433
14035719261921: Event_283: system.switch_cpus1 progress event, total committed:242179013, progress insts committed: 2705202, IPC: 00.27025
14035719261921: Event_282: system.switch_cpus0 progress event, total committed:242686992, progress insts committed: 2702462, IPC: 0.269976
14039052595254: Event_282: system.switch_cpus0 progress event, total committed:245005130, progress insts committed: 2318138, IPC: 0.231582
14039052595254: Event_283: system.switch_cpus1 progress event, total committed:244474650, progress insts committed: 2295637, IPC: 0.229334
14039052595254: Event_284: system.switch_cpus2 progress event, total committed:245043261, progress insts committed: 2313861, IPC: 0.231155
14039052595254: Event_285: system.switch_cpus3 progress event, total committed:245129643, progress insts committed: 2382188, IPC: 0.237981
14042385928587: Event_285: system.switch_cpus3 progress event, total committed:247675314, progress insts committed: 2545671, IPC: 0.254313
14042385928587: Event_284: system.switch_cpus2 progress event, total committed:247637257, progress insts committed: 2593996, IPC: 00.25914
14042385928587: Event_283: system.switch_cpus1 progress event, total committed:247418157, progress insts committed: 2943507, IPC: 0.294056
14042385928587: Event_282: system.switch_cpus0 progress event, total committed:247633827, progress insts committed: 2628697, IPC: 0.262607
14045719261920: Event_282: system.switch_cpus0 progress event, total committed:249940133, progress insts committed: 2306306, IPC: 000.2304
14045719261920: Event_283: system.switch_cpus1 progress event, total committed:249385181, progress insts committed: 1967024, IPC: 0.196506
14045719261920: Event_284: system.switch_cpus2 progress event, total committed:249957746, progress insts committed: 2320489, IPC: 0.231817
14045719261920: Event_285: system.switch_cpus3 progress event, total committed:250037681, progress insts committed: 2362367, IPC: 0000.236
14049052595253: Event_285: system.switch_cpus3 progress event, total committed:252478094, progress insts committed: 2440413, IPC: 0.243797
14049052595253: Event_284: system.switch_cpus2 progress event, total committed:252462212, progress insts committed: 2504466, IPC: 0.250196
14049052595253: Event_283: system.switch_cpus1 progress event, total committed:252308443, progress insts committed: 2923262, IPC: 0.292034
14049052595253: Event_282: system.switch_cpus0 progress event, total committed:252445965, progress insts committed: 2505832, IPC: 0.250333
14052385928586: Event_282: system.switch_cpus0 progress event, total committed:254802404, progress insts committed: 2356439, IPC: 0.235408
14052385928586: Event_283: system.switch_cpus1 progress event, total committed:254238004, progress insts committed: 1929561, IPC: 0.192763
14052385928586: Event_284: system.switch_cpus2 progress event, total committed:254823936, progress insts committed: 2361724, IPC: 0.235936
14052385928586: Event_285: system.switch_cpus3 progress event, total committed:254876179, progress insts committed: 2398085, IPC: 0.239569
14055719261919: Event_285: system.switch_cpus3 progress event, total committed:257270161, progress insts committed: 2393982, IPC: 0.239159
14055719261919: Event_284: system.switch_cpus2 progress event, total committed:257246585, progress insts committed: 2422649, IPC: 0.242023
14055719261919: Event_283: system.switch_cpus1 progress event, total committed:257116844, progress insts committed: 2878840, IPC: 0.287596
14055719261919: Event_282: system.switch_cpus0 progress event, total committed:257234060, progress insts committed: 2431656, IPC: 0.242922
14059052595252: Event_282: system.switch_cpus0 progress event, total committed:259586851, progress insts committed: 2352791, IPC: 0.235044
14059052595252: Event_283: system.switch_cpus1 progress event, total committed:259014215, progress insts committed: 1897371, IPC: 0.189547
14059052595252: Event_284: system.switch_cpus2 progress event, total committed:259646815, progress insts committed: 2400230, IPC: 0.239783
14059052595252: Event_285: system.switch_cpus3 progress event, total committed:259675253, progress insts committed: 2405092, IPC: 0.240269
14062385928585: Event_285: system.switch_cpus3 progress event, total committed:262048152, progress insts committed: 2372899, IPC: 0.237053
14062385928585: Event_284: system.switch_cpus2 progress event, total committed:262023637, progress insts committed: 2376822, IPC: 0.237445
14062385928585: Event_283: system.switch_cpus1 progress event, total committed:261910595, progress insts committed: 2896380, IPC: 0.289348
14062385928585: Event_282: system.switch_cpus0 progress event, total committed:262020434, progress insts committed: 2433583, IPC: 0.243115
14065719261918: Event_282: system.switch_cpus0 progress event, total committed:264433835, progress insts committed: 2413401, IPC: 0.241099
14065719261918: Event_283: system.switch_cpus1 progress event, total committed:263841519, progress insts committed: 1930924, IPC: 0.192899
14065719261918: Event_284: system.switch_cpus2 progress event, total committed:264539921, progress insts committed: 2516284, IPC: 0.251377
14065719261918: Event_285: system.switch_cpus3 progress event, total committed:264557956, progress insts committed: 2509804, IPC: 0.250729
14069052595251: Event_285: system.switch_cpus3 progress event, total committed:266750359, progress insts committed: 2192403, IPC: 0.219021
14069052595251: Event_284: system.switch_cpus2 progress event, total committed:266739255, progress insts committed: 2199334, IPC: 0.219713
14069052595251: Event_283: system.switch_cpus1 progress event, total committed:266626075, progress insts committed: 2784556, IPC: 0.278177
14069052595251: Event_282: system.switch_cpus0 progress event, total committed:266731348, progress insts committed: 2297513, IPC: 0.229522
14072385928584: Event_282: system.switch_cpus0 progress event, total committed:269129069, progress insts committed: 2397721, IPC: 0.239532
14072385928584: Event_283: system.switch_cpus1 progress event, total committed:268512947, progress insts committed: 1886872, IPC: 0.188499
14072385928584: Event_284: system.switch_cpus2 progress event, total committed:269310587, progress insts committed: 2571332, IPC: 0.256876
14072385928584: Event_285: system.switch_cpus3 progress event, total committed:269322772, progress insts committed: 2572413, IPC: 0.256984
14075719261917: Event_285: system.switch_cpus3 progress event, total committed:271416954, progress insts committed: 2094182, IPC: 0.209209
14075719261917: Event_284: system.switch_cpus2 progress event, total committed:271416667, progress insts committed: 2106080, IPC: 0.210397
14075719261917: Event_283: system.switch_cpus1 progress event, total committed:271269296, progress insts committed: 2756349, IPC: 0.275359
14075719261917: Event_282: system.switch_cpus0 progress event, total committed:271378683, progress insts committed: 2249614, IPC: 0.224736
14079052595250: Event_282: system.switch_cpus0 progress event, total committed:273662526, progress insts committed: 2283843, IPC: 0.228156
14079052595250: Event_283: system.switch_cpus1 progress event, total committed:273018691, progress insts committed: 1749395, IPC: 0.174765
14079052595250: Event_284: system.switch_cpus2 progress event, total committed:273940534, progress insts committed: 2523867, IPC: 0.252134
14079052595250: Event_285: system.switch_cpus3 progress event, total committed:273940776, progress insts committed: 2523822, IPC: 00.25213
Exiting @ tick 14080869506196 because a thread reached the max instruction count
