Command line:
./runscript_pride.sh blender AE.BASELINE.1C 1 2017
Global frequency set at 1000000000000 ticks per second
DRAM config: RowsPerBank: 65536, BanksPerRank: 32, RanksPerChannel: 1
warn: Sockets disabled, not accepting gdb connections
warn: CoherentXBar system.cpu.mmucache.mmubus has no snooping ports attached!
warn: Checkpoints for file descriptors currently do not work.
gem5 Simulator System.  http://gem5.org
gem5 is copyrighted software; use the --copyright option for details.

gem5 version 20.1.0.5
gem5 compiled Jul 12 2024 12:42:38
gem5 started Jul 31 2024 03:21:18
gem5 executing on a07dda8b130c, pid 225572
command line: /home/user/PrIDE/performance/gem5/build/X86/gem5.opt --outdir=/home/user/PrIDE/performance/gem5/stats/pride_multiprogram_16GBmem_250Mn.SPEC2017.C1/AE.BASELINE.1C/blender /home/user/PrIDE/performance/gem5/configs/example/se_rq_spec_config_multicore.py --redirects /lib64=/home/utils/gcc-6.2.0/lib64 --benchmark=blender --benchmark_stdout=/home/user/PrIDE/performance/gem5/stats/pride_multiprogram_16GBmem_250Mn.SPEC2017.C1/AE.BASELINE.1C/blender/blender.out --benchmark_stderr=/home/user/PrIDE/performance/gem5/stats/pride_multiprogram_16GBmem_250Mn.SPEC2017.C1/AE.BASELINE.1C/blender/blender.err --spec-version=2017 --num-cpus=1 --mem-size=16GB --mem-type=DDR5_2400_32x4 --mem-ranks=1 --mem-channels=1 --checkpoint-dir=/home/user/PrIDE/performance/gem5/cpts-DDR5/multiprogram_16GBmem_25Bn.SPEC2017.C1/blender-1-ref-x86 --checkpoint-restore=25000000000 --at-instruction --cpu-type DerivO3CPU --caches --l2cache --l1d_size=32kB --l1i_size=32kB --l2_size=256kB --l3_size=4MB --l1d_assoc=8 --l1i_assoc=8 --l2_assoc=16 --l3_assoc=16 --cpu-clock=3GHz --sys-clock=3GHz --maxinsts=250000000 --prog-interval=300Hz

info: Standard input is not a terminal, disabling listeners.
Benchmark- 0   blender
Selected benchmark
--> blender
CMD: ['/opt/spec2017/benchspec/CPU/526.blender_r/run/run_base_refrate_gem5_se-m64.0000/blender_r_base.gem5_se-m64', '/opt/spec2017/benchspec/CPU/526.blender_r/run/run_base_refrate_gem5_se-m64.0000/sh3_no_char.blend', '--render-output', 'sh3_no_char_', '--threads', '1', '-b', '-F', 'RAWTGA', '-s', '849', '-e', '849', '-a']
CWD: /opt/spec2017/benchspec/CPU/526.blender_r/run/run_base_refrate_gem5_se-m64.0000/
Process stdout file: /home/user/PrIDE/performance/gem5/stats/pride_multiprogram_16GBmem_250Mn.SPEC2017.C1/AE.BASELINE.1C/blender/blender.out_0
Process stderr file: /home/user/PrIDE/performance/gem5/stats/pride_multiprogram_16GBmem_250Mn.SPEC2017.C1/AE.BASELINE.1C/blender/blender.err_0
Workload-0: 
['/opt/spec2017/benchspec/CPU/526.blender_r/run/run_base_refrate_gem5_se-m64.0000/blender_r_base.gem5_se-m64', '/opt/spec2017/benchspec/CPU/526.blender_r/run/run_base_refrate_gem5_se-m64.0000/sh3_no_char.blend', '--render-output', 'sh3_no_char_', '--threads', '1', '-b', '-F', 'RAWTGA', '-s', '849', '-e', '849', '-a']
defense_enable:  False  detector:  MG  mitigation:  RRS  threshold:  800
mg_entries:  1700
rrs_tuples:  3400 rrs_swap_delay:  2740ns rit_acc_delay:  1.25ns
Switch at curTick count:10000
warn: membus.master is deprecated. `master` is now called `mem_side_ports`
warn: No dot file generated. Please install pydot to generate the dot file and pdf.
info: Entering event queue @ 18219162241026.  Starting simulation...
info: Entering event queue @ 18219162251026.  Starting simulation...
warn: PowerState: Already in the requested power state, request ignored
Switched CPUS @ tick 18219162251026
switching cpus
**** REAL SIMULATION ****
info: Entering event queue @ 18219162251682.  Starting simulation...
18222495574359: Event_93: system.switch_cpus progress event, total committed:6233001, progress insts committed: 6233001, IPC: 0.622677
18225828907692: Event_93: system.switch_cpus progress event, total committed:12495479, progress insts committed: 6262478, IPC: 0.625622
18229162241025: Event_93: system.switch_cpus progress event, total committed:18736089, progress insts committed: 6240610, IPC: 0.623437
18232495574358: Event_93: system.switch_cpus progress event, total committed:25020627, progress insts committed: 6284538, IPC: 0.627825
18235828907691: Event_93: system.switch_cpus progress event, total committed:31349625, progress insts committed: 6328998, IPC: 0.632267
18239162241024: Event_93: system.switch_cpus progress event, total committed:37817921, progress insts committed: 6468296, IPC: 0.646183
18242495574357: Event_93: system.switch_cpus progress event, total committed:43044548, progress insts committed: 5226627, IPC: 00.52214
18245828907690: Event_93: system.switch_cpus progress event, total committed:46848183, progress insts committed: 3803635, IPC: 0.379983
18249162241023: Event_93: system.switch_cpus progress event, total committed:50589778, progress insts committed: 3741595, IPC: 0.373785
18252495574356: Event_93: system.switch_cpus progress event, total committed:54313064, progress insts committed: 3723286, IPC: 0.371956
18255828907689: Event_93: system.switch_cpus progress event, total committed:58024183, progress insts committed: 3711119, IPC: 0.370741
18259162241022: Event_93: system.switch_cpus progress event, total committed:61702579, progress insts committed: 3678396, IPC: 0.367472
18262495574355: Event_93: system.switch_cpus progress event, total committed:65399729, progress insts committed: 3697150, IPC: 0.369345
18265828907688: Event_93: system.switch_cpus progress event, total committed:69047668, progress insts committed: 3647939, IPC: 0.364429
18269162241021: Event_93: system.switch_cpus progress event, total committed:72727443, progress insts committed: 3679775, IPC: 00.36761
18272495574354: Event_93: system.switch_cpus progress event, total committed:76521288, progress insts committed: 3793845, IPC: 0.379005
18275828907687: Event_93: system.switch_cpus progress event, total committed:85650409, progress insts committed: 9129121, IPC: 0.911999
18279162241020: Event_93: system.switch_cpus progress event, total committed:92111560, progress insts committed: 6461151, IPC: 0.645469
18282495574353: Event_93: system.switch_cpus progress event, total committed:98902708, progress insts committed: 6791148, IPC: 0.678436
18285828907686: Event_93: system.switch_cpus progress event, total committed:105470601, progress insts committed: 6567893, IPC: 0.656133
18289162241019: Event_93: system.switch_cpus progress event, total committed:112120556, progress insts committed: 6649955, IPC: 0.664331
18292495574352: Event_93: system.switch_cpus progress event, total committed:118854817, progress insts committed: 6734261, IPC: 0.672753
18295828907685: Event_93: system.switch_cpus progress event, total committed:120473565, progress insts committed: 1618748, IPC: 0.161713
18299162241018: Event_93: system.switch_cpus progress event, total committed:120709509, progress insts committed: 235944, IPC: 0.0235708
18302495574351: Event_93: system.switch_cpus progress event, total committed:120926259, progress insts committed: 216750, IPC: 0.0216533
18305828907684: Event_93: system.switch_cpus progress event, total committed:121139703, progress insts committed: 213444, IPC: 0.0213231
18309162241017: Event_93: system.switch_cpus progress event, total committed:121350193, progress insts committed: 210490, IPC: 0.021028
18312495574350: Event_93: system.switch_cpus progress event, total committed:121579168, progress insts committed: 228975, IPC: 0.0228746
18315828907683: Event_93: system.switch_cpus progress event, total committed:121810093, progress insts committed: 230925, IPC: 0.0230694
18319162241016: Event_93: system.switch_cpus progress event, total committed:122049997, progress insts committed: 239904, IPC: 0.0239664
18322495574349: Event_93: system.switch_cpus progress event, total committed:122285149, progress insts committed: 235152, IPC: 0.0234917
18325828907682: Event_93: system.switch_cpus progress event, total committed:122523271, progress insts committed: 238122, IPC: 0.0237884
18329162241015: Event_93: system.switch_cpus progress event, total committed:122762680, progress insts committed: 239409, IPC: 0.023917
18332495574348: Event_93: system.switch_cpus progress event, total committed:123002182, progress insts committed: 239502, IPC: 0.0239262
18335828907681: Event_93: system.switch_cpus progress event, total committed:123241984, progress insts committed: 239802, IPC: 0.0239562
18339162241014: Event_93: system.switch_cpus progress event, total committed:125155365, progress insts committed: 1913381, IPC: 0.191147
18342495574347: Event_93: system.switch_cpus progress event, total committed:128616555, progress insts committed: 3461190, IPC: 0.345773
18345828907680: Event_93: system.switch_cpus progress event, total committed:132181140, progress insts committed: 3564585, IPC: 0.356102
warn: MOVNTDQ: Ignoring non-temporal hint, modeling as cacheable!
18349162241013: Event_93: system.switch_cpus progress event, total committed:134170357, progress insts committed: 1989217, IPC: 0.198723
18352495574346: Event_93: system.switch_cpus progress event, total committed:134993509, progress insts committed: 823152, IPC: 0.0822329
18355828907679: Event_93: system.switch_cpus progress event, total committed:136500003, progress insts committed: 1506494, IPC: 0.150499
18359162241012: Event_93: system.switch_cpus progress event, total committed:139441683, progress insts committed: 2941680, IPC: 0.293874
18362495574345: Event_93: system.switch_cpus progress event, total committed:142482438, progress insts committed: 3040755, IPC: 0.303771
18365828907678: Event_93: system.switch_cpus progress event, total committed:145947103, progress insts committed: 3464665, IPC: 00.34612
18369162241011: Event_93: system.switch_cpus progress event, total committed:146775568, progress insts committed: 828465, IPC: 0.0827637
18372495574344: Event_93: system.switch_cpus progress event, total committed:147585808, progress insts committed: 810240, IPC: 0.080943
18375828907677: Event_93: system.switch_cpus progress event, total committed:150647744, progress insts committed: 3061936, IPC: 0.305887
18379162241010: Event_93: system.switch_cpus progress event, total committed:154456591, progress insts committed: 3808847, IPC: 0.380504
18382495574343: Event_93: system.switch_cpus progress event, total committed:158221351, progress insts committed: 3764760, IPC: 000.3761
18385828907676: Event_93: system.switch_cpus progress event, total committed:159455546, progress insts committed: 1234195, IPC: 0.123296
18389162241009: Event_93: system.switch_cpus progress event, total committed:160260746, progress insts committed: 805200, IPC: 0.0804395
18392495574342: Event_93: system.switch_cpus progress event, total committed:162638333, progress insts committed: 2377587, IPC: 0.237521
18395828907675: Event_93: system.switch_cpus progress event, total committed:166377563, progress insts committed: 3739230, IPC: 0.373549
18399162241008: Event_93: system.switch_cpus progress event, total committed:170167228, progress insts committed: 3789665, IPC: 0.378588
18402495574341: Event_93: system.switch_cpus progress event, total committed:173996328, progress insts committed: 3829100, IPC: 0.382527
18405828907674: Event_93: system.switch_cpus progress event, total committed:184932576, progress insts committed: 10936248, IPC: 01.09253
18409162241007: Event_93: system.switch_cpus progress event, total committed:191872188, progress insts committed: 6939612, IPC: 0.693267
18412495574340: Event_93: system.switch_cpus progress event, total committed:196985759, progress insts committed: 5113571, IPC: 0.510846
18415828907673: Event_93: system.switch_cpus progress event, total committed:200434860, progress insts committed: 3449101, IPC: 0.344565
18419162241006: Event_93: system.switch_cpus progress event, total committed:203785020, progress insts committed: 3350160, IPC: 0.334681
18422495574339: Event_93: system.switch_cpus progress event, total committed:207155149, progress insts committed: 3370129, IPC: 0.336676
18425828907672: Event_93: system.switch_cpus progress event, total committed:217082818, progress insts committed: 9927669, IPC: 0.991774
18429162241005: Event_93: system.switch_cpus progress event, total committed:223104140, progress insts committed: 6021322, IPC: 00.60153
18432495574338: Event_93: system.switch_cpus progress event, total committed:227520124, progress insts committed: 4415984, IPC: 0.441157
18435828907671: Event_93: system.switch_cpus progress event, total committed:231240018, progress insts committed: 3719894, IPC: 0.371617
18439162241004: Event_93: system.switch_cpus progress event, total committed:234865721, progress insts committed: 3625703, IPC: 0.362208
18442495574337: Event_93: system.switch_cpus progress event, total committed:243481999, progress insts committed: 8616278, IPC: 0.860766
18445828907670: Event_93: system.switch_cpus progress event, total committed:250205864, progress insts committed: 6723865, IPC: 0.671714
18449162241003: Event_93: system.switch_cpus progress event, total committed:256953354, progress insts committed: 6747490, IPC: 0.674074
18452495574336: Event_93: system.switch_cpus progress event, total committed:257660334, progress insts committed: 706980, IPC: 0.0706273
18455828907669: Event_93: system.switch_cpus progress event, total committed:257904960, progress insts committed: 244626, IPC: 0.0244381
18459162241002: Event_93: system.switch_cpus progress event, total committed:258158592, progress insts committed: 253632, IPC: 0.0253378
18462495574335: Event_93: system.switch_cpus progress event, total committed:258409689, progress insts committed: 251097, IPC: 0.0250846
18465828907668: Event_93: system.switch_cpus progress event, total committed:261398441, progress insts committed: 2988752, IPC: 0.298576
18469162241001: Event_93: system.switch_cpus progress event, total committed:263812159, progress insts committed: 2413718, IPC: 00.24113
18472495574334: Event_93: system.switch_cpus progress event, total committed:266473579, progress insts committed: 2661420, IPC: 0.265876
18475828907667: Event_93: system.switch_cpus progress event, total committed:268675375, progress insts committed: 2201796, IPC: 0.219959
18479162241000: Event_93: system.switch_cpus progress event, total committed:271068575, progress insts committed: 2393200, IPC: 0.239081
18482495574333: Event_93: system.switch_cpus progress event, total committed:274565522, progress insts committed: 3496947, IPC: 0.349345
18485828907666: Event_93: system.switch_cpus progress event, total committed:279400018, progress insts committed: 4834496, IPC: 0.482966
18489162240999: Event_93: system.switch_cpus progress event, total committed:289002904, progress insts committed: 9602886, IPC: 0.959328
18492495574332: Event_93: system.switch_cpus progress event, total committed:292770785, progress insts committed: 3767881, IPC: 0.376411
18495828907665: Event_93: system.switch_cpus progress event, total committed:301276596, progress insts committed: 8505811, IPC: 0.849731
18499162240998: Event_93: system.switch_cpus progress event, total committed:306143727, progress insts committed: 4867131, IPC: 0.486226
18502495574331: Event_93: system.switch_cpus progress event, total committed:310012981, progress insts committed: 3869254, IPC: 0.386538
18505828907664: Event_93: system.switch_cpus progress event, total committed:320626475, progress insts committed: 10613494, IPC: 01.06029
18509162240997: Event_93: system.switch_cpus progress event, total committed:320873534, progress insts committed: 247059, IPC: 0.0246812
18512495574330: Event_93: system.switch_cpus progress event, total committed:321157375, progress insts committed: 283841, IPC: 0.0283557
18515828907663: Event_93: system.switch_cpus progress event, total committed:323886634, progress insts committed: 2729259, IPC: 0.272653
18519162240996: Event_93: system.switch_cpus progress event, total committed:326913943, progress insts committed: 3027309, IPC: 0.302428
18522495574329: Event_93: system.switch_cpus progress event, total committed:330401321, progress insts committed: 3487378, IPC: 0.348389
18525828907662: Event_93: system.switch_cpus progress event, total committed:339436684, progress insts committed: 9035363, IPC: 0.902633
18529162240995: Event_93: system.switch_cpus progress event, total committed:347618984, progress insts committed: 8182300, IPC: 0.817412
18532495574328: Event_93: system.switch_cpus progress event, total committed:354792793, progress insts committed: 7173809, IPC: 0.716664
18535828907661: Event_93: system.switch_cpus progress event, total committed:361562929, progress insts committed: 6770136, IPC: 0.676337
18539162240994: Event_93: system.switch_cpus progress event, total committed:373718564, progress insts committed: 12155635, IPC: 01.21435
18542495574327: Event_93: system.switch_cpus progress event, total committed:393861319, progress insts committed: 20142755, IPC: 02.01226
18545828907660: Event_93: system.switch_cpus progress event, total committed:425290756, progress insts committed: 31429437, IPC: 003.1398
Exiting @ tick 18548613929889 because a thread reached the max instruction count
