
---------- Begin Simulation Statistics ----------
final_tick                               18547983579204                       # Number of ticks from beginning of simulation (restored from checkpoints and never reset)
host_inst_rate                                  91552                       # Simulator instruction rate (inst/s)
host_mem_usage                               17173544                       # Number of bytes of host memory used
host_op_rate                                   163693                       # Simulator op (including micro ops) rate (op/s)
host_seconds                                  2730.68                       # Real time elapsed on the host
host_tick_rate                              120417427                       # Simulator tick rate (ticks/s)
sim_freq                                 1000000000000                       # Frequency of simulated ticks
sim_insts                                   250000013                       # Number of instructions simulated
sim_ops                                     446992460                       # Number of ops (including micro ops) simulated
sim_seconds                                  0.328821                       # Number of seconds simulated
sim_ticks                                328821334848                       # Number of ticks simulated
system.cpu.Branches                                 1                       # Number of branches fetched
system.cpu.committedInsts                          13                       # Number of instructions committed
system.cpu.committedOps                            24                       # Number of ops (including micro ops) committed
system.cpu.idle_fraction                            0                       # Percentage of idle cycles
system.cpu.l2bus.snoop_filter.hit_multi_requests           22                       # Number of requests hitting in the snoop filter with multiple (>1) holders of the requested data.
system.cpu.l2bus.snoop_filter.hit_multi_snoops            0                       # Number of snoops hitting in the snoop filter with multiple (>1) holders of the requested data.
system.cpu.l2bus.snoop_filter.hit_single_requests     12234306                       # Number of requests hitting in the snoop filter with a single holder of the requested data.
system.cpu.l2bus.snoop_filter.hit_single_snoops          329                       # Number of snoops hitting in the snoop filter with a single holder of the requested data.
system.cpu.l2bus.snoop_filter.tot_requests     24466830                       # Total number of requests made to the snoop filter.
system.cpu.l2bus.snoop_filter.tot_snoops          329                       # Total number of snoops made to the snoop filter.
system.cpu.mmucache.mmubus.snoop_filter.hit_multi_requests            0                       # Number of requests hitting in the snoop filter with multiple (>1) holders of the requested data.
system.cpu.mmucache.mmubus.snoop_filter.hit_multi_snoops            0                       # Number of snoops hitting in the snoop filter with multiple (>1) holders of the requested data.
system.cpu.mmucache.mmubus.snoop_filter.hit_single_requests            0                       # Number of requests hitting in the snoop filter with a single holder of the requested data.
system.cpu.mmucache.mmubus.snoop_filter.hit_single_snoops            0                       # Number of snoops hitting in the snoop filter with a single holder of the requested data.
system.cpu.mmucache.mmubus.snoop_filter.tot_requests            0                       # Total number of requests made to the snoop filter.
system.cpu.mmucache.mmubus.snoop_filter.tot_snoops            0                       # Total number of snoops made to the snoop filter.
system.cpu.not_idle_fraction                        1                       # Percentage of non-idle cycles
system.cpu.numCycles                               30                       # number of cpu cycles simulated
system.cpu.numWorkItemsCompleted                    0                       # number of work items this cpu completed
system.cpu.numWorkItemsStarted                      0                       # number of work items this cpu started
system.cpu.num_busy_cycles                         30                       # Number of busy cycles
system.cpu.num_cc_register_reads                    5                       # number of times the CC registers were read
system.cpu.num_conditional_control_insts            1                       # number of instructions that are conditional controls
system.cpu.num_fp_alu_accesses                     21                       # Number of float alu accesses
system.cpu.num_fp_insts                            21                       # number of float instructions
system.cpu.num_fp_register_reads                   40                       # number of times the floating registers were read
system.cpu.num_fp_register_writes                  21                       # number of times the floating registers were written
system.cpu.num_func_calls                           0                       # number of times a function call or return occured
system.cpu.num_idle_cycles                          0                       # Number of idle cycles
system.cpu.num_int_alu_accesses                     4                       # Number of integer alu accesses
system.cpu.num_int_insts                            4                       # number of integer instructions
system.cpu.num_int_register_reads                   7                       # number of times the integer registers were read
system.cpu.num_int_register_writes                  2                       # number of times the integer registers were written
system.cpu.num_load_insts                           1                       # Number of load instructions
system.cpu.num_mem_refs                             1                       # number of memory refs
system.cpu.num_store_insts                          0                       # Number of store instructions
system.cpu.num_vec_alu_accesses                     0                       # Number of vector alu accesses
system.cpu.num_vec_insts                            0                       # number of vector instructions
system.cpu.num_vec_register_reads                   0                       # number of times the vector registers were read
system.cpu.num_vec_register_writes                  0                       # number of times the vector registers were written
system.cpu.op_class::No_OpClass                     0      0.00%      0.00% # Class of executed instruction
system.cpu.op_class::IntAlu                        17     70.83%     70.83% # Class of executed instruction
system.cpu.op_class::IntMult                        0      0.00%     70.83% # Class of executed instruction
system.cpu.op_class::IntDiv                         0      0.00%     70.83% # Class of executed instruction
system.cpu.op_class::FloatAdd                       2      8.33%     79.17% # Class of executed instruction
system.cpu.op_class::FloatCmp                       0      0.00%     79.17% # Class of executed instruction
system.cpu.op_class::FloatCvt                       0      0.00%     79.17% # Class of executed instruction
system.cpu.op_class::FloatMult                      0      0.00%     79.17% # Class of executed instruction
system.cpu.op_class::FloatMultAcc                   0      0.00%     79.17% # Class of executed instruction
system.cpu.op_class::FloatDiv                       0      0.00%     79.17% # Class of executed instruction
system.cpu.op_class::FloatMisc                      0      0.00%     79.17% # Class of executed instruction
system.cpu.op_class::FloatSqrt                      0      0.00%     79.17% # Class of executed instruction
system.cpu.op_class::SimdAdd                        0      0.00%     79.17% # Class of executed instruction
system.cpu.op_class::SimdAddAcc                     0      0.00%     79.17% # Class of executed instruction
system.cpu.op_class::SimdAlu                        0      0.00%     79.17% # Class of executed instruction
system.cpu.op_class::SimdCmp                        0      0.00%     79.17% # Class of executed instruction
system.cpu.op_class::SimdCvt                        0      0.00%     79.17% # Class of executed instruction
system.cpu.op_class::SimdMisc                       0      0.00%     79.17% # Class of executed instruction
system.cpu.op_class::SimdMult                       0      0.00%     79.17% # Class of executed instruction
system.cpu.op_class::SimdMultAcc                    0      0.00%     79.17% # Class of executed instruction
system.cpu.op_class::SimdShift                      0      0.00%     79.17% # Class of executed instruction
system.cpu.op_class::SimdShiftAcc                   0      0.00%     79.17% # Class of executed instruction
system.cpu.op_class::SimdDiv                        0      0.00%     79.17% # Class of executed instruction
system.cpu.op_class::SimdSqrt                       0      0.00%     79.17% # Class of executed instruction
system.cpu.op_class::SimdFloatAdd                   3     12.50%     91.67% # Class of executed instruction
system.cpu.op_class::SimdFloatAlu                   0      0.00%     91.67% # Class of executed instruction
system.cpu.op_class::SimdFloatCmp                   1      4.17%     95.83% # Class of executed instruction
system.cpu.op_class::SimdFloatCvt                   0      0.00%     95.83% # Class of executed instruction
system.cpu.op_class::SimdFloatDiv                   0      0.00%     95.83% # Class of executed instruction
system.cpu.op_class::SimdFloatMisc                  0      0.00%     95.83% # Class of executed instruction
system.cpu.op_class::SimdFloatMult                  0      0.00%     95.83% # Class of executed instruction
system.cpu.op_class::SimdFloatMultAcc               0      0.00%     95.83% # Class of executed instruction
system.cpu.op_class::SimdFloatSqrt                  0      0.00%     95.83% # Class of executed instruction
system.cpu.op_class::SimdReduceAdd                  0      0.00%     95.83% # Class of executed instruction
system.cpu.op_class::SimdReduceAlu                  0      0.00%     95.83% # Class of executed instruction
system.cpu.op_class::SimdReduceCmp                  0      0.00%     95.83% # Class of executed instruction
system.cpu.op_class::SimdFloatReduceAdd             0      0.00%     95.83% # Class of executed instruction
system.cpu.op_class::SimdFloatReduceCmp             0      0.00%     95.83% # Class of executed instruction
system.cpu.op_class::SimdAes                        0      0.00%     95.83% # Class of executed instruction
system.cpu.op_class::SimdAesMix                     0      0.00%     95.83% # Class of executed instruction
system.cpu.op_class::SimdSha1Hash                   0      0.00%     95.83% # Class of executed instruction
system.cpu.op_class::SimdSha1Hash2                  0      0.00%     95.83% # Class of executed instruction
system.cpu.op_class::SimdSha256Hash                 0      0.00%     95.83% # Class of executed instruction
system.cpu.op_class::SimdSha256Hash2                0      0.00%     95.83% # Class of executed instruction
system.cpu.op_class::SimdShaSigma2                  0      0.00%     95.83% # Class of executed instruction
system.cpu.op_class::SimdShaSigma3                  0      0.00%     95.83% # Class of executed instruction
system.cpu.op_class::SimdPredAlu                    0      0.00%     95.83% # Class of executed instruction
system.cpu.op_class::MemRead                        0      0.00%     95.83% # Class of executed instruction
system.cpu.op_class::MemWrite                       0      0.00%     95.83% # Class of executed instruction
system.cpu.op_class::FloatMemRead                   1      4.17%    100.00% # Class of executed instruction
system.cpu.op_class::FloatMemWrite                  0      0.00%    100.00% # Class of executed instruction
system.cpu.op_class::IprAccess                      0      0.00%    100.00% # Class of executed instruction
system.cpu.op_class::InstPrefetch                   0      0.00%    100.00% # Class of executed instruction
system.cpu.op_class::total                         24                       # Class of executed instruction
system.cpu.workload.numSyscalls                     0                       # Number of system calls
system.l3bus.snoop_filter.hit_multi_requests            0                       # Number of requests hitting in the snoop filter with multiple (>1) holders of the requested data.
system.l3bus.snoop_filter.hit_multi_snoops            0                       # Number of snoops hitting in the snoop filter with multiple (>1) holders of the requested data.
system.l3bus.snoop_filter.hit_single_requests      9708603                       # Number of requests hitting in the snoop filter with a single holder of the requested data.
system.l3bus.snoop_filter.hit_single_snoops            1                       # Number of snoops hitting in the snoop filter with a single holder of the requested data.
system.l3bus.snoop_filter.tot_requests       19424925                       # Total number of requests made to the snoop filter.
system.l3bus.snoop_filter.tot_snoops                1                       # Total number of snoops made to the snoop filter.
system.membus.snoop_filter.hit_multi_requests            0                       # Number of requests hitting in the snoop filter with multiple (>1) holders of the requested data.
system.membus.snoop_filter.hit_multi_snoops            0                       # Number of snoops hitting in the snoop filter with multiple (>1) holders of the requested data.
system.membus.snoop_filter.hit_single_requests      7286645                       # Number of requests hitting in the snoop filter with a single holder of the requested data.
system.membus.snoop_filter.hit_single_snoops            0                       # Number of snoops hitting in the snoop filter with a single holder of the requested data.
system.membus.snoop_filter.tot_requests      14638853                       # Total number of requests made to the snoop filter.
system.membus.snoop_filter.tot_snoops               0                       # Total number of snoops made to the snoop filter.
system.switch_cpus.cc_regfile_reads         199305484                       # number of cc regfile reads
system.switch_cpus.cc_regfile_writes        122792122                       # number of cc regfile writes
system.switch_cpus.committedInsts           250000000                       # Number of Instructions Simulated
system.switch_cpus.committedOps             446992436                       # Number of Ops (including micro ops) Simulated
system.switch_cpus.cpi                       3.949806                       # CPI: Cycles Per Instruction
system.switch_cpus.cpi_total                 3.949806                       # CPI: Total CPI of All Threads
system.switch_cpus.fp_regfile_reads         381779300                       # number of floating regfile reads
system.switch_cpus.fp_regfile_writes        287571684                       # number of floating regfile writes
system.switch_cpus.idleCycles                   26699                       # Total number of cycles that the CPU has spent unscheduled due to idling
system.switch_cpus.iew.branchMispredicts       642911                       # Number of branch mispredicts detected at execute
system.switch_cpus.iew.exec_branches         29392837                       # Number of branches executed
system.switch_cpus.iew.exec_nop                     0                       # number of nop insts executed
system.switch_cpus.iew.exec_rate             0.608231                       # Inst execution rate
system.switch_cpus.iew.exec_refs            186882892                       # number of memory reference insts executed
system.switch_cpus.iew.exec_stores           65017653                       # Number of stores executed
system.switch_cpus.iew.exec_swp                     0                       # number of swp insts executed
system.switch_cpus.iew.iewBlockCycles       183165993                       # Number of cycles IEW is blocking
system.switch_cpus.iew.iewDispLoadInsts     115863582                       # Number of dispatched load instructions
system.switch_cpus.iew.iewDispNonSpecInsts          117                       # Number of dispatched non-speculative instructions
system.switch_cpus.iew.iewDispSquashedInsts         9713                       # Number of squashed instructions skipped by dispatch
system.switch_cpus.iew.iewDispStoreInsts     66496367                       # Number of dispatched store instructions
system.switch_cpus.iew.iewDispatchedInsts    604057809                       # Number of instructions dispatched to IQ
system.switch_cpus.iew.iewExecLoadInsts     121865239                       # Number of load instructions executed
system.switch_cpus.iew.iewExecSquashedInsts      1438131                       # Number of squashed instructions skipped in execute
system.switch_cpus.iew.iewExecutedInsts     600598153                       # Number of executed instructions
system.switch_cpus.iew.iewIQFullEvents        1446185                       # Number of times the IQ has become full, causing a stall
system.switch_cpus.iew.iewIdleCycles                0                       # Number of cycles IEW is idle
system.switch_cpus.iew.iewLSQFullEvents     203263853                       # Number of times the LSQ has become full, causing a stall
system.switch_cpus.iew.iewSquashCycles        1680622                       # Number of cycles IEW is squashing
system.switch_cpus.iew.iewUnblockCycles     205495168                       # Number of cycles IEW is unblocking
system.switch_cpus.iew.memOrderViolationEvents         7280                       # Number of memory order violations
system.switch_cpus.iew.predictedNotTakenIncorrect       319734                       # Number of branches that were predicted not taken incorrectly
system.switch_cpus.iew.predictedTakenIncorrect       323177                       # Number of branches that were predicted taken incorrectly
system.switch_cpus.iew.wb_consumers         556332673                       # num instructions consuming a value
system.switch_cpus.iew.wb_count             577982965                       # cumulative count of insts written-back
system.switch_cpus.iew.wb_fanout             0.618963                       # average fanout of values written-back
system.switch_cpus.iew.wb_producers         344349322                       # num instructions producing a value
system.switch_cpus.iew.wb_rate               0.585328                       # insts written-back per cycle
system.switch_cpus.iew.wb_sent              591153701                       # cumulative count of insts sent to commit
system.switch_cpus.int_regfile_reads        593115570                       # number of integer regfile reads
system.switch_cpus.int_regfile_writes       190531775                       # number of integer regfile writes
system.switch_cpus.ipc                       0.253177                       # IPC: Instructions Per Cycle
system.switch_cpus.ipc_total                 0.253177                       # IPC: Total IPC of All Threads
system.switch_cpus.iq.FU_type_0::No_OpClass     13184274      2.19%      2.19% # Type of FU issued
system.switch_cpus.iq.FU_type_0::IntAlu     248827656     41.33%     43.52% # Type of FU issued
system.switch_cpus.iq.FU_type_0::IntMult            0      0.00%     43.52% # Type of FU issued
system.switch_cpus.iq.FU_type_0::IntDiv             0      0.00%     43.52% # Type of FU issued
system.switch_cpus.iq.FU_type_0::FloatAdd     73628743     12.23%     55.75% # Type of FU issued
system.switch_cpus.iq.FU_type_0::FloatCmp            0      0.00%     55.75% # Type of FU issued
system.switch_cpus.iq.FU_type_0::FloatCvt            0      0.00%     55.75% # Type of FU issued
system.switch_cpus.iq.FU_type_0::FloatMult            0      0.00%     55.75% # Type of FU issued
system.switch_cpus.iq.FU_type_0::FloatMultAcc            0      0.00%     55.75% # Type of FU issued
system.switch_cpus.iq.FU_type_0::FloatDiv            0      0.00%     55.75% # Type of FU issued
system.switch_cpus.iq.FU_type_0::FloatMisc            0      0.00%     55.75% # Type of FU issued
system.switch_cpus.iq.FU_type_0::FloatSqrt            0      0.00%     55.75% # Type of FU issued
system.switch_cpus.iq.FU_type_0::SimdAdd            0      0.00%     55.75% # Type of FU issued
system.switch_cpus.iq.FU_type_0::SimdAddAcc            0      0.00%     55.75% # Type of FU issued
system.switch_cpus.iq.FU_type_0::SimdAlu        58009      0.01%     55.76% # Type of FU issued
system.switch_cpus.iq.FU_type_0::SimdCmp            0      0.00%     55.76% # Type of FU issued
system.switch_cpus.iq.FU_type_0::SimdCvt            0      0.00%     55.76% # Type of FU issued
system.switch_cpus.iq.FU_type_0::SimdMisc            0      0.00%     55.76% # Type of FU issued
system.switch_cpus.iq.FU_type_0::SimdMult            0      0.00%     55.76% # Type of FU issued
system.switch_cpus.iq.FU_type_0::SimdMultAcc            0      0.00%     55.76% # Type of FU issued
system.switch_cpus.iq.FU_type_0::SimdShift            0      0.00%     55.76% # Type of FU issued
system.switch_cpus.iq.FU_type_0::SimdShiftAcc            0      0.00%     55.76% # Type of FU issued
system.switch_cpus.iq.FU_type_0::SimdDiv            0      0.00%     55.76% # Type of FU issued
system.switch_cpus.iq.FU_type_0::SimdSqrt            0      0.00%     55.76% # Type of FU issued
system.switch_cpus.iq.FU_type_0::SimdFloatAdd     28712133      4.77%     60.53% # Type of FU issued
system.switch_cpus.iq.FU_type_0::SimdFloatAlu            0      0.00%     60.53% # Type of FU issued
system.switch_cpus.iq.FU_type_0::SimdFloatCmp     29651498      4.93%     65.45% # Type of FU issued
system.switch_cpus.iq.FU_type_0::SimdFloatCvt      5713903      0.95%     66.40% # Type of FU issued
system.switch_cpus.iq.FU_type_0::SimdFloatDiv            0      0.00%     66.40% # Type of FU issued
system.switch_cpus.iq.FU_type_0::SimdFloatMisc            0      0.00%     66.40% # Type of FU issued
system.switch_cpus.iq.FU_type_0::SimdFloatMult     15001173      2.49%     68.90% # Type of FU issued
system.switch_cpus.iq.FU_type_0::SimdFloatMultAcc            0      0.00%     68.90% # Type of FU issued
system.switch_cpus.iq.FU_type_0::SimdFloatSqrt            0      0.00%     68.90% # Type of FU issued
system.switch_cpus.iq.FU_type_0::SimdReduceAdd            0      0.00%     68.90% # Type of FU issued
system.switch_cpus.iq.FU_type_0::SimdReduceAlu            0      0.00%     68.90% # Type of FU issued
system.switch_cpus.iq.FU_type_0::SimdReduceCmp            0      0.00%     68.90% # Type of FU issued
system.switch_cpus.iq.FU_type_0::SimdFloatReduceAdd            0      0.00%     68.90% # Type of FU issued
system.switch_cpus.iq.FU_type_0::SimdFloatReduceCmp            0      0.00%     68.90% # Type of FU issued
system.switch_cpus.iq.FU_type_0::SimdAes            0      0.00%     68.90% # Type of FU issued
system.switch_cpus.iq.FU_type_0::SimdAesMix            0      0.00%     68.90% # Type of FU issued
system.switch_cpus.iq.FU_type_0::SimdSha1Hash            0      0.00%     68.90% # Type of FU issued
system.switch_cpus.iq.FU_type_0::SimdSha1Hash2            0      0.00%     68.90% # Type of FU issued
system.switch_cpus.iq.FU_type_0::SimdSha256Hash            0      0.00%     68.90% # Type of FU issued
system.switch_cpus.iq.FU_type_0::SimdSha256Hash2            0      0.00%     68.90% # Type of FU issued
system.switch_cpus.iq.FU_type_0::SimdShaSigma2            0      0.00%     68.90% # Type of FU issued
system.switch_cpus.iq.FU_type_0::SimdShaSigma3            0      0.00%     68.90% # Type of FU issued
system.switch_cpus.iq.FU_type_0::SimdPredAlu            0      0.00%     68.90% # Type of FU issued
system.switch_cpus.iq.FU_type_0::MemRead     26975138      4.48%     73.38% # Type of FU issued
system.switch_cpus.iq.FU_type_0::MemWrite     21644130      3.60%     76.97% # Type of FU issued
system.switch_cpus.iq.FU_type_0::FloatMemRead     95154880     15.81%     92.78% # Type of FU issued
system.switch_cpus.iq.FU_type_0::FloatMemWrite     43484753      7.22%    100.00% # Type of FU issued
system.switch_cpus.iq.FU_type_0::IprAccess            0      0.00%    100.00% # Type of FU issued
system.switch_cpus.iq.FU_type_0::InstPrefetch            0      0.00%    100.00% # Type of FU issued
system.switch_cpus.iq.FU_type_0::total      602036290                       # Type of FU issued
system.switch_cpus.iq.fp_alu_accesses       359679748                       # Number of floating point alu accesses
system.switch_cpus.iq.fp_inst_queue_reads    704486557                       # Number of floating instruction queue reads
system.switch_cpus.iq.fp_inst_queue_wakeup_accesses    336688758                       # Number of floating instruction queue wakeup accesses
system.switch_cpus.iq.fp_inst_queue_writes    389244700                       # Number of floating instruction queue writes
system.switch_cpus.iq.fu_busy_cnt            24914605                       # FU busy when requested
system.switch_cpus.iq.fu_busy_rate           0.041384                       # FU busy rate (busy events/executed inst)
system.switch_cpus.iq.fu_full::No_OpClass            0      0.00%      0.00% # attempts to use FU when none available
system.switch_cpus.iq.fu_full::IntAlu         1350957      5.42%      5.42% # attempts to use FU when none available
system.switch_cpus.iq.fu_full::IntMult              0      0.00%      5.42% # attempts to use FU when none available
system.switch_cpus.iq.fu_full::IntDiv               0      0.00%      5.42% # attempts to use FU when none available
system.switch_cpus.iq.fu_full::FloatAdd         23303      0.09%      5.52% # attempts to use FU when none available
system.switch_cpus.iq.fu_full::FloatCmp             0      0.00%      5.52% # attempts to use FU when none available
system.switch_cpus.iq.fu_full::FloatCvt             0      0.00%      5.52% # attempts to use FU when none available
system.switch_cpus.iq.fu_full::FloatMult            0      0.00%      5.52% # attempts to use FU when none available
system.switch_cpus.iq.fu_full::FloatMultAcc            0      0.00%      5.52% # attempts to use FU when none available
system.switch_cpus.iq.fu_full::FloatDiv             0      0.00%      5.52% # attempts to use FU when none available
system.switch_cpus.iq.fu_full::FloatMisc            0      0.00%      5.52% # attempts to use FU when none available
system.switch_cpus.iq.fu_full::FloatSqrt            0      0.00%      5.52% # attempts to use FU when none available
system.switch_cpus.iq.fu_full::SimdAdd              0      0.00%      5.52% # attempts to use FU when none available
system.switch_cpus.iq.fu_full::SimdAddAcc            0      0.00%      5.52% # attempts to use FU when none available
system.switch_cpus.iq.fu_full::SimdAlu              0      0.00%      5.52% # attempts to use FU when none available
system.switch_cpus.iq.fu_full::SimdCmp              0      0.00%      5.52% # attempts to use FU when none available
system.switch_cpus.iq.fu_full::SimdCvt              0      0.00%      5.52% # attempts to use FU when none available
system.switch_cpus.iq.fu_full::SimdMisc             0      0.00%      5.52% # attempts to use FU when none available
system.switch_cpus.iq.fu_full::SimdMult             0      0.00%      5.52% # attempts to use FU when none available
system.switch_cpus.iq.fu_full::SimdMultAcc            0      0.00%      5.52% # attempts to use FU when none available
system.switch_cpus.iq.fu_full::SimdShift            0      0.00%      5.52% # attempts to use FU when none available
system.switch_cpus.iq.fu_full::SimdShiftAcc            0      0.00%      5.52% # attempts to use FU when none available
system.switch_cpus.iq.fu_full::SimdDiv              0      0.00%      5.52% # attempts to use FU when none available
system.switch_cpus.iq.fu_full::SimdSqrt             0      0.00%      5.52% # attempts to use FU when none available
system.switch_cpus.iq.fu_full::SimdFloatAdd       220159      0.88%      6.40% # attempts to use FU when none available
system.switch_cpus.iq.fu_full::SimdFloatAlu            0      0.00%      6.40% # attempts to use FU when none available
system.switch_cpus.iq.fu_full::SimdFloatCmp       914600      3.67%     10.07% # attempts to use FU when none available
system.switch_cpus.iq.fu_full::SimdFloatCvt            0      0.00%     10.07% # attempts to use FU when none available
system.switch_cpus.iq.fu_full::SimdFloatDiv            0      0.00%     10.07% # attempts to use FU when none available
system.switch_cpus.iq.fu_full::SimdFloatMisc            0      0.00%     10.07% # attempts to use FU when none available
system.switch_cpus.iq.fu_full::SimdFloatMult        29667      0.12%     10.19% # attempts to use FU when none available
system.switch_cpus.iq.fu_full::SimdFloatMultAcc            0      0.00%     10.19% # attempts to use FU when none available
system.switch_cpus.iq.fu_full::SimdFloatSqrt            0      0.00%     10.19% # attempts to use FU when none available
system.switch_cpus.iq.fu_full::SimdReduceAdd            0      0.00%     10.19% # attempts to use FU when none available
system.switch_cpus.iq.fu_full::SimdReduceAlu            0      0.00%     10.19% # attempts to use FU when none available
system.switch_cpus.iq.fu_full::SimdReduceCmp            0      0.00%     10.19% # attempts to use FU when none available
system.switch_cpus.iq.fu_full::SimdFloatReduceAdd            0      0.00%     10.19% # attempts to use FU when none available
system.switch_cpus.iq.fu_full::SimdFloatReduceCmp            0      0.00%     10.19% # attempts to use FU when none available
system.switch_cpus.iq.fu_full::SimdAes              0      0.00%     10.19% # attempts to use FU when none available
system.switch_cpus.iq.fu_full::SimdAesMix            0      0.00%     10.19% # attempts to use FU when none available
system.switch_cpus.iq.fu_full::SimdSha1Hash            0      0.00%     10.19% # attempts to use FU when none available
system.switch_cpus.iq.fu_full::SimdSha1Hash2            0      0.00%     10.19% # attempts to use FU when none available
system.switch_cpus.iq.fu_full::SimdSha256Hash            0      0.00%     10.19% # attempts to use FU when none available
system.switch_cpus.iq.fu_full::SimdSha256Hash2            0      0.00%     10.19% # attempts to use FU when none available
system.switch_cpus.iq.fu_full::SimdShaSigma2            0      0.00%     10.19% # attempts to use FU when none available
system.switch_cpus.iq.fu_full::SimdShaSigma3            0      0.00%     10.19% # attempts to use FU when none available
system.switch_cpus.iq.fu_full::SimdPredAlu            0      0.00%     10.19% # attempts to use FU when none available
system.switch_cpus.iq.fu_full::MemRead        1801543      7.23%     17.42% # attempts to use FU when none available
system.switch_cpus.iq.fu_full::MemWrite       6897215     27.68%     45.10% # attempts to use FU when none available
system.switch_cpus.iq.fu_full::FloatMemRead      9938795     39.89%     85.00% # attempts to use FU when none available
system.switch_cpus.iq.fu_full::FloatMemWrite      3738366     15.00%    100.00% # attempts to use FU when none available
system.switch_cpus.iq.fu_full::IprAccess            0      0.00%    100.00% # attempts to use FU when none available
system.switch_cpus.iq.fu_full::InstPrefetch            0      0.00%    100.00% # attempts to use FU when none available
system.switch_cpus.iq.int_alu_accesses      254086873                       # Number of integer alu accesses
system.switch_cpus.iq.int_inst_queue_reads   1512120472                       # Number of integer instruction queue reads
system.switch_cpus.iq.int_inst_queue_wakeup_accesses    241294207                       # Number of integer instruction queue wakeup accesses
system.switch_cpus.iq.int_inst_queue_writes    371885399                       # Number of integer instruction queue writes
system.switch_cpus.iq.iqInstsAdded          604047398                       # Number of instructions added to the IQ (excludes non-spec)
system.switch_cpus.iq.iqInstsIssued         602036290                       # Number of instructions issued
system.switch_cpus.iq.iqNonSpecInstsAdded        10411                       # Number of non-speculative instructions added to the IQ
system.switch_cpus.iq.iqSquashedInstsExamined    157065221                       # Number of squashed instructions iterated over during squash; mainly for profiling
system.switch_cpus.iq.iqSquashedInstsIssued       195124                       # Number of squashed instructions issued
system.switch_cpus.iq.iqSquashedNonSpecRemoved         9369                       # Number of squashed non-spec instructions that were removed
system.switch_cpus.iq.iqSquashedOperandsExamined     49616507                       # Number of squashed operands that are examined and possibly removed from graph
system.switch_cpus.iq.issued_per_cycle::samples    987424726                       # Number of insts issued each cycle
system.switch_cpus.iq.issued_per_cycle::mean     0.609703                       # Number of insts issued each cycle
system.switch_cpus.iq.issued_per_cycle::stdev     1.664060                       # Number of insts issued each cycle
system.switch_cpus.iq.issued_per_cycle::underflows            0      0.00%      0.00% # Number of insts issued each cycle
system.switch_cpus.iq.issued_per_cycle::0    824739238     83.52%     83.52% # Number of insts issued each cycle
system.switch_cpus.iq.issued_per_cycle::1     38062446      3.85%     87.38% # Number of insts issued each cycle
system.switch_cpus.iq.issued_per_cycle::2     27117207      2.75%     90.13% # Number of insts issued each cycle
system.switch_cpus.iq.issued_per_cycle::3     20217348      2.05%     92.17% # Number of insts issued each cycle
system.switch_cpus.iq.issued_per_cycle::4     19815158      2.01%     94.18% # Number of insts issued each cycle
system.switch_cpus.iq.issued_per_cycle::5     15782598      1.60%     95.78% # Number of insts issued each cycle
system.switch_cpus.iq.issued_per_cycle::6     16108698      1.63%     97.41% # Number of insts issued each cycle
system.switch_cpus.iq.issued_per_cycle::7     10394688      1.05%     98.46% # Number of insts issued each cycle
system.switch_cpus.iq.issued_per_cycle::8     15187345      1.54%    100.00% # Number of insts issued each cycle
system.switch_cpus.iq.issued_per_cycle::overflows            0      0.00%    100.00% # Number of insts issued each cycle
system.switch_cpus.iq.issued_per_cycle::min_value            0                       # Number of insts issued each cycle
system.switch_cpus.iq.issued_per_cycle::max_value            8                       # Number of insts issued each cycle
system.switch_cpus.iq.issued_per_cycle::total    987424726                       # Number of insts issued each cycle
system.switch_cpus.iq.rate                   0.609687                       # Inst issue rate
system.switch_cpus.iq.vec_alu_accesses              0                       # Number of vector alu accesses
system.switch_cpus.iq.vec_inst_queue_reads            0                       # Number of vector instruction queue reads
system.switch_cpus.iq.vec_inst_queue_wakeup_accesses            0                       # Number of vector instruction queue wakeup accesses
system.switch_cpus.iq.vec_inst_queue_writes            0                       # Number of vector instruction queue writes
system.switch_cpus.memDep0.conflictingLoads     17470847                       # Number of conflicting loads.
system.switch_cpus.memDep0.conflictingStores     16799935                       # Number of conflicting stores.
system.switch_cpus.memDep0.insertedLoads    115863582                       # Number of loads inserted to the mem dependence unit.
system.switch_cpus.memDep0.insertedStores     66496367                       # Number of stores inserted to the mem dependence unit.
system.switch_cpus.misc_regfile_reads       247190288                       # number of misc regfile reads
system.switch_cpus.misc_regfile_writes              1                       # number of misc regfile writes
system.switch_cpus.numCycles                987451425                       # number of cpu cycles simulated
system.switch_cpus.numWorkItemsCompleted            0                       # number of work items this cpu completed
system.switch_cpus.numWorkItemsStarted              0                       # number of work items this cpu started
system.switch_cpus.timesIdled                     144                       # Number of times that the entire CPU went into an idle state and unscheduled itself
system.clk_domain.clock                           333                       # Clock period in ticks
system.cpu.dcache.demand_hits::.switch_cpus.data     99524006                       # number of demand (read+write) hits
system.cpu.dcache.demand_hits::total         99524006                       # number of demand (read+write) hits
system.cpu.dcache.overall_hits::.switch_cpus.data    105195651                       # number of overall hits
system.cpu.dcache.overall_hits::total       105195651                       # number of overall hits
system.cpu.dcache.demand_misses::.cpu.data            1                       # number of demand (read+write) misses
system.cpu.dcache.demand_misses::.switch_cpus.data     36104614                       # number of demand (read+write) misses
system.cpu.dcache.demand_misses::total       36104615                       # number of demand (read+write) misses
system.cpu.dcache.overall_misses::.cpu.data            1                       # number of overall misses
system.cpu.dcache.overall_misses::.switch_cpus.data     37026612                       # number of overall misses
system.cpu.dcache.overall_misses::total      37026613                       # number of overall misses
system.cpu.dcache.demand_miss_latency::.switch_cpus.data 1972489782021                       # number of demand (read+write) miss cycles
system.cpu.dcache.demand_miss_latency::total 1972489782021                       # number of demand (read+write) miss cycles
system.cpu.dcache.overall_miss_latency::.switch_cpus.data 1972489782021                       # number of overall miss cycles
system.cpu.dcache.overall_miss_latency::total 1972489782021                       # number of overall miss cycles
system.cpu.dcache.demand_accesses::.cpu.data            1                       # number of demand (read+write) accesses
system.cpu.dcache.demand_accesses::.switch_cpus.data    135628620                       # number of demand (read+write) accesses
system.cpu.dcache.demand_accesses::total    135628621                       # number of demand (read+write) accesses
system.cpu.dcache.overall_accesses::.cpu.data            1                       # number of overall (read+write) accesses
system.cpu.dcache.overall_accesses::.switch_cpus.data    142222263                       # number of overall (read+write) accesses
system.cpu.dcache.overall_accesses::total    142222264                       # number of overall (read+write) accesses
system.cpu.dcache.demand_miss_rate::.cpu.data            1                       # miss rate for demand accesses
system.cpu.dcache.demand_miss_rate::.switch_cpus.data     0.266202                       # miss rate for demand accesses
system.cpu.dcache.demand_miss_rate::total     0.266202                       # miss rate for demand accesses
system.cpu.dcache.overall_miss_rate::.cpu.data            1                       # miss rate for overall accesses
system.cpu.dcache.overall_miss_rate::.switch_cpus.data     0.260343                       # miss rate for overall accesses
system.cpu.dcache.overall_miss_rate::total     0.260343                       # miss rate for overall accesses
system.cpu.dcache.demand_avg_miss_latency::.switch_cpus.data 54632.623465                       # average overall miss latency
system.cpu.dcache.demand_avg_miss_latency::total 54632.621952                       # average overall miss latency
system.cpu.dcache.overall_avg_miss_latency::.switch_cpus.data 53272.218966                       # average overall miss latency
system.cpu.dcache.overall_avg_miss_latency::total 53272.217527                       # average overall miss latency
system.cpu.dcache.blocked_cycles::no_mshrs            0                       # number of cycles access was blocked
system.cpu.dcache.blocked_cycles::no_targets       577697                       # number of cycles access was blocked
system.cpu.dcache.blocked::no_mshrs                 0                       # number of cycles access was blocked
system.cpu.dcache.blocked::no_targets            3684                       # number of cycles access was blocked
system.cpu.dcache.avg_blocked_cycles::no_mshrs          nan                       # average number of cycles each access was blocked
system.cpu.dcache.avg_blocked_cycles::no_targets   156.812432                       # average number of cycles each access was blocked
system.cpu.dcache.writebacks::.writebacks     12231731                       # number of writebacks
system.cpu.dcache.writebacks::total          12231731                       # number of writebacks
system.cpu.dcache.demand_mshr_hits::.switch_cpus.data     24286079                       # number of demand (read+write) MSHR hits
system.cpu.dcache.demand_mshr_hits::total     24286079                       # number of demand (read+write) MSHR hits
system.cpu.dcache.overall_mshr_hits::.switch_cpus.data     24286079                       # number of overall MSHR hits
system.cpu.dcache.overall_mshr_hits::total     24286079                       # number of overall MSHR hits
system.cpu.dcache.demand_mshr_misses::.switch_cpus.data     11818535                       # number of demand (read+write) MSHR misses
system.cpu.dcache.demand_mshr_misses::total     11818535                       # number of demand (read+write) MSHR misses
system.cpu.dcache.overall_mshr_misses::.switch_cpus.data     12234788                       # number of overall MSHR misses
system.cpu.dcache.overall_mshr_misses::total     12234788                       # number of overall MSHR misses
system.cpu.dcache.demand_mshr_miss_latency::.switch_cpus.data 767371541586                       # number of demand (read+write) MSHR miss cycles
system.cpu.dcache.demand_mshr_miss_latency::total 767371541586                       # number of demand (read+write) MSHR miss cycles
system.cpu.dcache.overall_mshr_miss_latency::.switch_cpus.data 798178097526                       # number of overall MSHR miss cycles
system.cpu.dcache.overall_mshr_miss_latency::total 798178097526                       # number of overall MSHR miss cycles
system.cpu.dcache.demand_mshr_miss_rate::.switch_cpus.data     0.087139                       # mshr miss rate for demand accesses
system.cpu.dcache.demand_mshr_miss_rate::total     0.087139                       # mshr miss rate for demand accesses
system.cpu.dcache.overall_mshr_miss_rate::.switch_cpus.data     0.086026                       # mshr miss rate for overall accesses
system.cpu.dcache.overall_mshr_miss_rate::total     0.086026                       # mshr miss rate for overall accesses
system.cpu.dcache.demand_avg_mshr_miss_latency::.switch_cpus.data 64929.497741                       # average overall mshr miss latency
system.cpu.dcache.demand_avg_mshr_miss_latency::total 64929.497741                       # average overall mshr miss latency
system.cpu.dcache.overall_avg_mshr_miss_latency::.switch_cpus.data 65238.408506                       # average overall mshr miss latency
system.cpu.dcache.overall_avg_mshr_miss_latency::total 65238.408506                       # average overall mshr miss latency
system.cpu.dcache.replacements               12231731                       # number of replacements
system.cpu.dcache.ReadReq_hits::.switch_cpus.data     74467511                       # number of ReadReq hits
system.cpu.dcache.ReadReq_hits::total        74467511                       # number of ReadReq hits
system.cpu.dcache.ReadReq_misses::.cpu.data            1                       # number of ReadReq misses
system.cpu.dcache.ReadReq_misses::.switch_cpus.data     33446294                       # number of ReadReq misses
system.cpu.dcache.ReadReq_misses::total      33446295                       # number of ReadReq misses
system.cpu.dcache.ReadReq_miss_latency::.switch_cpus.data 1781552700630                       # number of ReadReq miss cycles
system.cpu.dcache.ReadReq_miss_latency::total 1781552700630                       # number of ReadReq miss cycles
system.cpu.dcache.ReadReq_accesses::.cpu.data            1                       # number of ReadReq accesses(hits+misses)
system.cpu.dcache.ReadReq_accesses::.switch_cpus.data    107913805                       # number of ReadReq accesses(hits+misses)
system.cpu.dcache.ReadReq_accesses::total    107913806                       # number of ReadReq accesses(hits+misses)
system.cpu.dcache.ReadReq_miss_rate::.cpu.data            1                       # miss rate for ReadReq accesses
system.cpu.dcache.ReadReq_miss_rate::.switch_cpus.data     0.309935                       # miss rate for ReadReq accesses
system.cpu.dcache.ReadReq_miss_rate::total     0.309935                       # miss rate for ReadReq accesses
system.cpu.dcache.ReadReq_avg_miss_latency::.switch_cpus.data 53266.071889                       # average ReadReq miss latency
system.cpu.dcache.ReadReq_avg_miss_latency::total 53266.070297                       # average ReadReq miss latency
system.cpu.dcache.ReadReq_mshr_hits::.switch_cpus.data     24285850                       # number of ReadReq MSHR hits
system.cpu.dcache.ReadReq_mshr_hits::total     24285850                       # number of ReadReq MSHR hits
system.cpu.dcache.ReadReq_mshr_misses::.switch_cpus.data      9160444                       # number of ReadReq MSHR misses
system.cpu.dcache.ReadReq_mshr_misses::total      9160444                       # number of ReadReq MSHR misses
system.cpu.dcache.ReadReq_mshr_miss_latency::.switch_cpus.data 577331584173                       # number of ReadReq MSHR miss cycles
system.cpu.dcache.ReadReq_mshr_miss_latency::total 577331584173                       # number of ReadReq MSHR miss cycles
system.cpu.dcache.ReadReq_mshr_miss_rate::.switch_cpus.data     0.084887                       # mshr miss rate for ReadReq accesses
system.cpu.dcache.ReadReq_mshr_miss_rate::total     0.084887                       # mshr miss rate for ReadReq accesses
system.cpu.dcache.ReadReq_avg_mshr_miss_latency::.switch_cpus.data 63024.410626                       # average ReadReq mshr miss latency
system.cpu.dcache.ReadReq_avg_mshr_miss_latency::total 63024.410626                       # average ReadReq mshr miss latency
system.cpu.dcache.WriteReq_hits::.switch_cpus.data     25056495                       # number of WriteReq hits
system.cpu.dcache.WriteReq_hits::total       25056495                       # number of WriteReq hits
system.cpu.dcache.WriteReq_misses::.switch_cpus.data      2658320                       # number of WriteReq misses
system.cpu.dcache.WriteReq_misses::total      2658320                       # number of WriteReq misses
system.cpu.dcache.WriteReq_miss_latency::.switch_cpus.data 190937081391                       # number of WriteReq miss cycles
system.cpu.dcache.WriteReq_miss_latency::total 190937081391                       # number of WriteReq miss cycles
system.cpu.dcache.WriteReq_accesses::.switch_cpus.data     27714815                       # number of WriteReq accesses(hits+misses)
system.cpu.dcache.WriteReq_accesses::total     27714815                       # number of WriteReq accesses(hits+misses)
system.cpu.dcache.WriteReq_miss_rate::.switch_cpus.data     0.095917                       # miss rate for WriteReq accesses
system.cpu.dcache.WriteReq_miss_rate::total     0.095917                       # miss rate for WriteReq accesses
system.cpu.dcache.WriteReq_avg_miss_latency::.switch_cpus.data 71826.221595                       # average WriteReq miss latency
system.cpu.dcache.WriteReq_avg_miss_latency::total 71826.221595                       # average WriteReq miss latency
system.cpu.dcache.WriteReq_mshr_hits::.switch_cpus.data          229                       # number of WriteReq MSHR hits
system.cpu.dcache.WriteReq_mshr_hits::total          229                       # number of WriteReq MSHR hits
system.cpu.dcache.WriteReq_mshr_misses::.switch_cpus.data      2658091                       # number of WriteReq MSHR misses
system.cpu.dcache.WriteReq_mshr_misses::total      2658091                       # number of WriteReq MSHR misses
system.cpu.dcache.WriteReq_mshr_miss_latency::.switch_cpus.data 190039957413                       # number of WriteReq MSHR miss cycles
system.cpu.dcache.WriteReq_mshr_miss_latency::total 190039957413                       # number of WriteReq MSHR miss cycles
system.cpu.dcache.WriteReq_mshr_miss_rate::.switch_cpus.data     0.095909                       # mshr miss rate for WriteReq accesses
system.cpu.dcache.WriteReq_mshr_miss_rate::total     0.095909                       # mshr miss rate for WriteReq accesses
system.cpu.dcache.WriteReq_avg_mshr_miss_latency::.switch_cpus.data 71494.902700                       # average WriteReq mshr miss latency
system.cpu.dcache.WriteReq_avg_mshr_miss_latency::total 71494.902700                       # average WriteReq mshr miss latency
system.cpu.dcache.SoftPFReq_hits::.switch_cpus.data      5671645                       # number of SoftPFReq hits
system.cpu.dcache.SoftPFReq_hits::total       5671645                       # number of SoftPFReq hits
system.cpu.dcache.SoftPFReq_misses::.switch_cpus.data       921998                       # number of SoftPFReq misses
system.cpu.dcache.SoftPFReq_misses::total       921998                       # number of SoftPFReq misses
system.cpu.dcache.SoftPFReq_accesses::.switch_cpus.data      6593643                       # number of SoftPFReq accesses(hits+misses)
system.cpu.dcache.SoftPFReq_accesses::total      6593643                       # number of SoftPFReq accesses(hits+misses)
system.cpu.dcache.SoftPFReq_miss_rate::.switch_cpus.data     0.139831                       # miss rate for SoftPFReq accesses
system.cpu.dcache.SoftPFReq_miss_rate::total     0.139831                       # miss rate for SoftPFReq accesses
system.cpu.dcache.SoftPFReq_mshr_misses::.switch_cpus.data       416253                       # number of SoftPFReq MSHR misses
system.cpu.dcache.SoftPFReq_mshr_misses::total       416253                       # number of SoftPFReq MSHR misses
system.cpu.dcache.SoftPFReq_mshr_miss_latency::.switch_cpus.data  30806555940                       # number of SoftPFReq MSHR miss cycles
system.cpu.dcache.SoftPFReq_mshr_miss_latency::total  30806555940                       # number of SoftPFReq MSHR miss cycles
system.cpu.dcache.SoftPFReq_mshr_miss_rate::.switch_cpus.data     0.063129                       # mshr miss rate for SoftPFReq accesses
system.cpu.dcache.SoftPFReq_mshr_miss_rate::total     0.063129                       # mshr miss rate for SoftPFReq accesses
system.cpu.dcache.SoftPFReq_avg_mshr_miss_latency::.switch_cpus.data 74009.210600                       # average SoftPFReq mshr miss latency
system.cpu.dcache.SoftPFReq_avg_mshr_miss_latency::total 74009.210600                       # average SoftPFReq mshr miss latency
system.cpu.dcache.power_state.pwrStateResidencyTicks::UNDEFINED 18547983579204                       # Cumulative time (in ticks) in various power states
system.cpu.dcache.tags.tagsinuse           511.982067                       # Cycle average of tags in use
system.cpu.dcache.tags.total_refs           117430510                       # Total number of references to valid blocks.
system.cpu.dcache.tags.sampled_refs          12232243                       # Sample count of references to valid blocks.
system.cpu.dcache.tags.avg_refs              9.600080                       # Average number of references to valid blocks.
system.cpu.dcache.tags.warmup_cycle      18219162246354                       # Cycle when the warmup percentage was hit.
system.cpu.dcache.tags.occ_blocks::.cpu.data     0.000080                       # Average occupied blocks per requestor
system.cpu.dcache.tags.occ_blocks::.switch_cpus.data   511.981987                       # Average occupied blocks per requestor
system.cpu.dcache.tags.occ_percent::.cpu.data     0.000000                       # Average percentage of cache occupancy
system.cpu.dcache.tags.occ_percent::.switch_cpus.data     0.999965                       # Average percentage of cache occupancy
system.cpu.dcache.tags.occ_percent::total     0.999965                       # Average percentage of cache occupancy
system.cpu.dcache.tags.occ_task_id_blocks::1024          512                       # Occupied blocks per task id
system.cpu.dcache.tags.age_task_id_blocks_1024::0          512                       # Occupied blocks per task id
system.cpu.dcache.tags.occ_task_id_percent::1024            1                       # Percentage of cache occupancy per task id
system.cpu.dcache.tags.tag_accesses        1150010355                       # Number of tag accesses
system.cpu.dcache.tags.data_accesses       1150010355                       # Number of data accesses
system.cpu.dcache.tags.power_state.pwrStateResidencyTicks::UNDEFINED 18547983579204                       # Cumulative time (in ticks) in various power states
system.cpu.dtb.rdAccesses                           1                       # TLB accesses on read requests
system.cpu.dtb.wrAccesses                           0                       # TLB accesses on write requests
system.cpu.dtb.rdMisses                             0                       # TLB misses on read requests
system.cpu.dtb.wrMisses                             0                       # TLB misses on write requests
system.cpu.dtb.walker.power_state.pwrStateResidencyTicks::UNDEFINED 18547983579204                       # Cumulative time (in ticks) in various power states
system.cpu.icache.demand_hits::.cpu.inst           17                       # number of demand (read+write) hits
system.cpu.icache.demand_hits::.switch_cpus.inst     45922461                       # number of demand (read+write) hits
system.cpu.icache.demand_hits::total         45922478                       # number of demand (read+write) hits
system.cpu.icache.overall_hits::.cpu.inst           17                       # number of overall hits
system.cpu.icache.overall_hits::.switch_cpus.inst     45922461                       # number of overall hits
system.cpu.icache.overall_hits::total        45922478                       # number of overall hits
system.cpu.icache.demand_misses::.cpu.inst            2                       # number of demand (read+write) misses
system.cpu.icache.demand_misses::.switch_cpus.inst          341                       # number of demand (read+write) misses
system.cpu.icache.demand_misses::total            343                       # number of demand (read+write) misses
system.cpu.icache.overall_misses::.cpu.inst            2                       # number of overall misses
system.cpu.icache.overall_misses::.switch_cpus.inst          341                       # number of overall misses
system.cpu.icache.overall_misses::total           343                       # number of overall misses
system.cpu.icache.demand_miss_latency::.switch_cpus.inst     28995975                       # number of demand (read+write) miss cycles
system.cpu.icache.demand_miss_latency::total     28995975                       # number of demand (read+write) miss cycles
system.cpu.icache.overall_miss_latency::.switch_cpus.inst     28995975                       # number of overall miss cycles
system.cpu.icache.overall_miss_latency::total     28995975                       # number of overall miss cycles
system.cpu.icache.demand_accesses::.cpu.inst           19                       # number of demand (read+write) accesses
system.cpu.icache.demand_accesses::.switch_cpus.inst     45922802                       # number of demand (read+write) accesses
system.cpu.icache.demand_accesses::total     45922821                       # number of demand (read+write) accesses
system.cpu.icache.overall_accesses::.cpu.inst           19                       # number of overall (read+write) accesses
system.cpu.icache.overall_accesses::.switch_cpus.inst     45922802                       # number of overall (read+write) accesses
system.cpu.icache.overall_accesses::total     45922821                       # number of overall (read+write) accesses
system.cpu.icache.demand_miss_rate::.cpu.inst     0.105263                       # miss rate for demand accesses
system.cpu.icache.demand_miss_rate::.switch_cpus.inst     0.000007                       # miss rate for demand accesses
system.cpu.icache.demand_miss_rate::total     0.000007                       # miss rate for demand accesses
system.cpu.icache.overall_miss_rate::.cpu.inst     0.105263                       # miss rate for overall accesses
system.cpu.icache.overall_miss_rate::.switch_cpus.inst     0.000007                       # miss rate for overall accesses
system.cpu.icache.overall_miss_rate::total     0.000007                       # miss rate for overall accesses
system.cpu.icache.demand_avg_miss_latency::.switch_cpus.inst 85032.184751                       # average overall miss latency
system.cpu.icache.demand_avg_miss_latency::total 84536.370262                       # average overall miss latency
system.cpu.icache.overall_avg_miss_latency::.switch_cpus.inst 85032.184751                       # average overall miss latency
system.cpu.icache.overall_avg_miss_latency::total 84536.370262                       # average overall miss latency
system.cpu.icache.blocked_cycles::no_mshrs            0                       # number of cycles access was blocked
system.cpu.icache.blocked_cycles::no_targets            0                       # number of cycles access was blocked
system.cpu.icache.blocked::no_mshrs                 0                       # number of cycles access was blocked
system.cpu.icache.blocked::no_targets               0                       # number of cycles access was blocked
system.cpu.icache.avg_blocked_cycles::no_mshrs          nan                       # average number of cycles each access was blocked
system.cpu.icache.avg_blocked_cycles::no_targets          nan                       # average number of cycles each access was blocked
system.cpu.icache.demand_mshr_hits::.switch_cpus.inst           64                       # number of demand (read+write) MSHR hits
system.cpu.icache.demand_mshr_hits::total           64                       # number of demand (read+write) MSHR hits
system.cpu.icache.overall_mshr_hits::.switch_cpus.inst           64                       # number of overall MSHR hits
system.cpu.icache.overall_mshr_hits::total           64                       # number of overall MSHR hits
system.cpu.icache.demand_mshr_misses::.switch_cpus.inst          277                       # number of demand (read+write) MSHR misses
system.cpu.icache.demand_mshr_misses::total          277                       # number of demand (read+write) MSHR misses
system.cpu.icache.overall_mshr_misses::.switch_cpus.inst          277                       # number of overall MSHR misses
system.cpu.icache.overall_mshr_misses::total          277                       # number of overall MSHR misses
system.cpu.icache.demand_mshr_miss_latency::.switch_cpus.inst     24927714                       # number of demand (read+write) MSHR miss cycles
system.cpu.icache.demand_mshr_miss_latency::total     24927714                       # number of demand (read+write) MSHR miss cycles
system.cpu.icache.overall_mshr_miss_latency::.switch_cpus.inst     24927714                       # number of overall MSHR miss cycles
system.cpu.icache.overall_mshr_miss_latency::total     24927714                       # number of overall MSHR miss cycles
system.cpu.icache.demand_mshr_miss_rate::.switch_cpus.inst     0.000006                       # mshr miss rate for demand accesses
system.cpu.icache.demand_mshr_miss_rate::total     0.000006                       # mshr miss rate for demand accesses
system.cpu.icache.overall_mshr_miss_rate::.switch_cpus.inst     0.000006                       # mshr miss rate for overall accesses
system.cpu.icache.overall_mshr_miss_rate::total     0.000006                       # mshr miss rate for overall accesses
system.cpu.icache.demand_avg_mshr_miss_latency::.switch_cpus.inst 89991.747292                       # average overall mshr miss latency
system.cpu.icache.demand_avg_mshr_miss_latency::total 89991.747292                       # average overall mshr miss latency
system.cpu.icache.overall_avg_mshr_miss_latency::.switch_cpus.inst 89991.747292                       # average overall mshr miss latency
system.cpu.icache.overall_avg_mshr_miss_latency::total 89991.747292                       # average overall mshr miss latency
system.cpu.icache.replacements                      0                       # number of replacements
system.cpu.icache.ReadReq_hits::.cpu.inst           17                       # number of ReadReq hits
system.cpu.icache.ReadReq_hits::.switch_cpus.inst     45922461                       # number of ReadReq hits
system.cpu.icache.ReadReq_hits::total        45922478                       # number of ReadReq hits
system.cpu.icache.ReadReq_misses::.cpu.inst            2                       # number of ReadReq misses
system.cpu.icache.ReadReq_misses::.switch_cpus.inst          341                       # number of ReadReq misses
system.cpu.icache.ReadReq_misses::total           343                       # number of ReadReq misses
system.cpu.icache.ReadReq_miss_latency::.switch_cpus.inst     28995975                       # number of ReadReq miss cycles
system.cpu.icache.ReadReq_miss_latency::total     28995975                       # number of ReadReq miss cycles
system.cpu.icache.ReadReq_accesses::.cpu.inst           19                       # number of ReadReq accesses(hits+misses)
system.cpu.icache.ReadReq_accesses::.switch_cpus.inst     45922802                       # number of ReadReq accesses(hits+misses)
system.cpu.icache.ReadReq_accesses::total     45922821                       # number of ReadReq accesses(hits+misses)
system.cpu.icache.ReadReq_miss_rate::.cpu.inst     0.105263                       # miss rate for ReadReq accesses
system.cpu.icache.ReadReq_miss_rate::.switch_cpus.inst     0.000007                       # miss rate for ReadReq accesses
system.cpu.icache.ReadReq_miss_rate::total     0.000007                       # miss rate for ReadReq accesses
system.cpu.icache.ReadReq_avg_miss_latency::.switch_cpus.inst 85032.184751                       # average ReadReq miss latency
system.cpu.icache.ReadReq_avg_miss_latency::total 84536.370262                       # average ReadReq miss latency
system.cpu.icache.ReadReq_mshr_hits::.switch_cpus.inst           64                       # number of ReadReq MSHR hits
system.cpu.icache.ReadReq_mshr_hits::total           64                       # number of ReadReq MSHR hits
system.cpu.icache.ReadReq_mshr_misses::.switch_cpus.inst          277                       # number of ReadReq MSHR misses
system.cpu.icache.ReadReq_mshr_misses::total          277                       # number of ReadReq MSHR misses
system.cpu.icache.ReadReq_mshr_miss_latency::.switch_cpus.inst     24927714                       # number of ReadReq MSHR miss cycles
system.cpu.icache.ReadReq_mshr_miss_latency::total     24927714                       # number of ReadReq MSHR miss cycles
system.cpu.icache.ReadReq_mshr_miss_rate::.switch_cpus.inst     0.000006                       # mshr miss rate for ReadReq accesses
system.cpu.icache.ReadReq_mshr_miss_rate::total     0.000006                       # mshr miss rate for ReadReq accesses
system.cpu.icache.ReadReq_avg_mshr_miss_latency::.switch_cpus.inst 89991.747292                       # average ReadReq mshr miss latency
system.cpu.icache.ReadReq_avg_mshr_miss_latency::total 89991.747292                       # average ReadReq mshr miss latency
system.cpu.icache.power_state.pwrStateResidencyTicks::UNDEFINED 18547983579204                       # Cumulative time (in ticks) in various power states
system.cpu.icache.tags.tagsinuse           117.528054                       # Cycle average of tags in use
system.cpu.icache.tags.total_refs            45922757                       # Total number of references to valid blocks.
system.cpu.icache.tags.sampled_refs               279                       # Sample count of references to valid blocks.
system.cpu.icache.tags.avg_refs          164597.695341                       # Average number of references to valid blocks.
system.cpu.icache.tags.warmup_cycle      18219162244689                       # Cycle when the warmup percentage was hit.
system.cpu.icache.tags.occ_blocks::.cpu.inst     2.000000                       # Average occupied blocks per requestor
system.cpu.icache.tags.occ_blocks::.switch_cpus.inst   115.528054                       # Average occupied blocks per requestor
system.cpu.icache.tags.occ_percent::.cpu.inst     0.003906                       # Average percentage of cache occupancy
system.cpu.icache.tags.occ_percent::.switch_cpus.inst     0.225641                       # Average percentage of cache occupancy
system.cpu.icache.tags.occ_percent::total     0.229547                       # Average percentage of cache occupancy
system.cpu.icache.tags.occ_task_id_blocks::1024          278                       # Occupied blocks per task id
system.cpu.icache.tags.age_task_id_blocks_1024::3           75                       # Occupied blocks per task id
system.cpu.icache.tags.age_task_id_blocks_1024::4          203                       # Occupied blocks per task id
system.cpu.icache.tags.occ_task_id_percent::1024     0.542969                       # Percentage of cache occupancy per task id
system.cpu.icache.tags.tag_accesses         367382847                       # Number of tag accesses
system.cpu.icache.tags.data_accesses        367382847                       # Number of data accesses
system.cpu.icache.tags.power_state.pwrStateResidencyTicks::UNDEFINED 18547983579204                       # Cumulative time (in ticks) in various power states
system.cpu.interrupts.clk_domain.clock           5328                       # Clock period in ticks
system.cpu.itb.rdAccesses                           0                       # TLB accesses on read requests
system.cpu.itb.wrAccesses                          19                       # TLB accesses on write requests
system.cpu.itb.rdMisses                             0                       # TLB misses on read requests
system.cpu.itb.wrMisses                             0                       # TLB misses on write requests
system.cpu.itb.walker.power_state.pwrStateResidencyTicks::UNDEFINED 18547983579204                       # Cumulative time (in ticks) in various power states
system.cpu.l2bus.trans_dist::ReadResp         9576971                       # Transaction distribution
system.cpu.l2bus.trans_dist::WritebackDirty      6181319                       # Transaction distribution
system.cpu.l2bus.trans_dist::WritebackClean     15755440                       # Transaction distribution
system.cpu.l2bus.trans_dist::UpgradeReq          2572                       # Transaction distribution
system.cpu.l2bus.trans_dist::UpgradeResp         2572                       # Transaction distribution
system.cpu.l2bus.trans_dist::ReadExReq        2655552                       # Transaction distribution
system.cpu.l2bus.trans_dist::ReadExResp       2655551                       # Transaction distribution
system.cpu.l2bus.trans_dist::ReadSharedReq      9576972                       # Transaction distribution
system.cpu.l2bus.pkt_count_system.cpu.icache.mem_side_port::system.cpu.l2cache.cpu_side_port          557                       # Packet count per connected requestor and responder (bytes)
system.cpu.l2bus.pkt_count_system.cpu.dcache.mem_side_port::system.cpu.l2cache.cpu_side_port     36701363                       # Packet count per connected requestor and responder (bytes)
system.cpu.l2bus.pkt_count::total            36701920                       # Packet count per connected requestor and responder (bytes)
system.cpu.l2bus.pkt_size_system.cpu.icache.mem_side_port::system.cpu.l2cache.cpu_side_port        17792                       # Cumulative packet size per connected requestor and responder (bytes)
system.cpu.l2bus.pkt_size_system.cpu.dcache.mem_side_port::system.cpu.l2cache.cpu_side_port   1565694336                       # Cumulative packet size per connected requestor and responder (bytes)
system.cpu.l2bus.pkt_size::total           1565712128                       # Cumulative packet size per connected requestor and responder (bytes)
system.cpu.l2bus.snoops                       9705029                       # Total snoops (count)
system.cpu.l2bus.snoopTraffic               621121856                       # Total snoop traffic (bytes)
system.cpu.l2bus.snoop_fanout::samples       21940124                       # Request fanout histogram
system.cpu.l2bus.snoop_fanout::mean          0.000016                       # Request fanout histogram
system.cpu.l2bus.snoop_fanout::stdev         0.004000                       # Request fanout histogram
system.cpu.l2bus.snoop_fanout::underflows            0      0.00%      0.00% # Request fanout histogram
system.cpu.l2bus.snoop_fanout::0             21939773    100.00%    100.00% # Request fanout histogram
system.cpu.l2bus.snoop_fanout::1                  351      0.00%    100.00% # Request fanout histogram
system.cpu.l2bus.snoop_fanout::2                    0      0.00%    100.00% # Request fanout histogram
system.cpu.l2bus.snoop_fanout::3                    0      0.00%    100.00% # Request fanout histogram
system.cpu.l2bus.snoop_fanout::overflows            0      0.00%    100.00% # Request fanout histogram
system.cpu.l2bus.snoop_fanout::min_value            0                       # Request fanout histogram
system.cpu.l2bus.snoop_fanout::max_value            1                       # Request fanout histogram
system.cpu.l2bus.snoop_fanout::total         21940124                       # Request fanout histogram
system.cpu.l2bus.power_state.pwrStateResidencyTicks::UNDEFINED 18547983579204                       # Cumulative time (in ticks) in various power states
system.cpu.l2bus.reqLayer0.occupancy      16293786964                       # Layer occupancy (ticks)
system.cpu.l2bus.reqLayer0.utilization            5.0                       # Layer utilization (%)
system.cpu.l2bus.respLayer0.occupancy          277055                       # Layer occupancy (ticks)
system.cpu.l2bus.respLayer0.utilization           0.0                       # Layer utilization (%)
system.cpu.l2bus.respLayer1.occupancy     12220866234                       # Layer occupancy (ticks)
system.cpu.l2bus.respLayer1.utilization           3.7                       # Layer utilization (%)
system.cpu.l2cache.demand_hits::.switch_cpus.data      2523430                       # number of demand (read+write) hits
system.cpu.l2cache.demand_hits::total         2523430                       # number of demand (read+write) hits
system.cpu.l2cache.overall_hits::.switch_cpus.data      2523430                       # number of overall hits
system.cpu.l2cache.overall_hits::total        2523430                       # number of overall hits
system.cpu.l2cache.demand_misses::.cpu.inst            2                       # number of demand (read+write) misses
system.cpu.l2cache.demand_misses::.cpu.data            1                       # number of demand (read+write) misses
system.cpu.l2cache.demand_misses::.switch_cpus.inst          276                       # number of demand (read+write) misses
system.cpu.l2cache.demand_misses::.switch_cpus.data      9708814                       # number of demand (read+write) misses
system.cpu.l2cache.demand_misses::total       9709093                       # number of demand (read+write) misses
system.cpu.l2cache.overall_misses::.cpu.inst            2                       # number of overall misses
system.cpu.l2cache.overall_misses::.cpu.data            1                       # number of overall misses
system.cpu.l2cache.overall_misses::.switch_cpus.inst          276                       # number of overall misses
system.cpu.l2cache.overall_misses::.switch_cpus.data      9708814                       # number of overall misses
system.cpu.l2cache.overall_misses::total      9709093                       # number of overall misses
system.cpu.l2cache.demand_miss_latency::.switch_cpus.inst     24737238                       # number of demand (read+write) miss cycles
system.cpu.l2cache.demand_miss_latency::.switch_cpus.data 778289479182                       # number of demand (read+write) miss cycles
system.cpu.l2cache.demand_miss_latency::total 778314216420                       # number of demand (read+write) miss cycles
system.cpu.l2cache.overall_miss_latency::.switch_cpus.inst     24737238                       # number of overall miss cycles
system.cpu.l2cache.overall_miss_latency::.switch_cpus.data 778289479182                       # number of overall miss cycles
system.cpu.l2cache.overall_miss_latency::total 778314216420                       # number of overall miss cycles
system.cpu.l2cache.demand_accesses::.cpu.inst            2                       # number of demand (read+write) accesses
system.cpu.l2cache.demand_accesses::.cpu.data            1                       # number of demand (read+write) accesses
system.cpu.l2cache.demand_accesses::.switch_cpus.inst          276                       # number of demand (read+write) accesses
system.cpu.l2cache.demand_accesses::.switch_cpus.data     12232244                       # number of demand (read+write) accesses
system.cpu.l2cache.demand_accesses::total     12232523                       # number of demand (read+write) accesses
system.cpu.l2cache.overall_accesses::.cpu.inst            2                       # number of overall (read+write) accesses
system.cpu.l2cache.overall_accesses::.cpu.data            1                       # number of overall (read+write) accesses
system.cpu.l2cache.overall_accesses::.switch_cpus.inst          276                       # number of overall (read+write) accesses
system.cpu.l2cache.overall_accesses::.switch_cpus.data     12232244                       # number of overall (read+write) accesses
system.cpu.l2cache.overall_accesses::total     12232523                       # number of overall (read+write) accesses
system.cpu.l2cache.demand_miss_rate::.cpu.inst            1                       # miss rate for demand accesses
system.cpu.l2cache.demand_miss_rate::.cpu.data            1                       # miss rate for demand accesses
system.cpu.l2cache.demand_miss_rate::.switch_cpus.inst            1                       # miss rate for demand accesses
system.cpu.l2cache.demand_miss_rate::.switch_cpus.data     0.793707                       # miss rate for demand accesses
system.cpu.l2cache.demand_miss_rate::total     0.793711                       # miss rate for demand accesses
system.cpu.l2cache.overall_miss_rate::.cpu.inst            1                       # miss rate for overall accesses
system.cpu.l2cache.overall_miss_rate::.cpu.data            1                       # miss rate for overall accesses
system.cpu.l2cache.overall_miss_rate::.switch_cpus.inst            1                       # miss rate for overall accesses
system.cpu.l2cache.overall_miss_rate::.switch_cpus.data     0.793707                       # miss rate for overall accesses
system.cpu.l2cache.overall_miss_rate::total     0.793711                       # miss rate for overall accesses
system.cpu.l2cache.demand_avg_miss_latency::.switch_cpus.inst 89627.673913                       # average overall miss latency
system.cpu.l2cache.demand_avg_miss_latency::.switch_cpus.data 80163.187716                       # average overall miss latency
system.cpu.l2cache.demand_avg_miss_latency::total 80163.431993                       # average overall miss latency
system.cpu.l2cache.overall_avg_miss_latency::.switch_cpus.inst 89627.673913                       # average overall miss latency
system.cpu.l2cache.overall_avg_miss_latency::.switch_cpus.data 80163.187716                       # average overall miss latency
system.cpu.l2cache.overall_avg_miss_latency::total 80163.431993                       # average overall miss latency
system.cpu.l2cache.blocked_cycles::no_mshrs            0                       # number of cycles access was blocked
system.cpu.l2cache.blocked_cycles::no_targets            0                       # number of cycles access was blocked
system.cpu.l2cache.blocked::no_mshrs                0                       # number of cycles access was blocked
system.cpu.l2cache.blocked::no_targets              0                       # number of cycles access was blocked
system.cpu.l2cache.avg_blocked_cycles::no_mshrs          nan                       # average number of cycles each access was blocked
system.cpu.l2cache.avg_blocked_cycles::no_targets          nan                       # average number of cycles each access was blocked
system.cpu.l2cache.writebacks::.writebacks      9705027                       # number of writebacks
system.cpu.l2cache.writebacks::total          9705027                       # number of writebacks
system.cpu.l2cache.demand_mshr_misses::.switch_cpus.inst          276                       # number of demand (read+write) MSHR misses
system.cpu.l2cache.demand_mshr_misses::.switch_cpus.data      9708814                       # number of demand (read+write) MSHR misses
system.cpu.l2cache.demand_mshr_misses::total      9709090                       # number of demand (read+write) MSHR misses
system.cpu.l2cache.overall_mshr_misses::.switch_cpus.inst          276                       # number of overall MSHR misses
system.cpu.l2cache.overall_mshr_misses::.switch_cpus.data      9708814                       # number of overall MSHR misses
system.cpu.l2cache.overall_mshr_misses::total      9709090                       # number of overall MSHR misses
system.cpu.l2cache.demand_mshr_miss_latency::.switch_cpus.inst     24645330                       # number of demand (read+write) MSHR miss cycles
system.cpu.l2cache.demand_mshr_miss_latency::.switch_cpus.data 775056444786                       # number of demand (read+write) MSHR miss cycles
system.cpu.l2cache.demand_mshr_miss_latency::total 775081090116                       # number of demand (read+write) MSHR miss cycles
system.cpu.l2cache.overall_mshr_miss_latency::.switch_cpus.inst     24645330                       # number of overall MSHR miss cycles
system.cpu.l2cache.overall_mshr_miss_latency::.switch_cpus.data 775056444786                       # number of overall MSHR miss cycles
system.cpu.l2cache.overall_mshr_miss_latency::total 775081090116                       # number of overall MSHR miss cycles
system.cpu.l2cache.demand_mshr_miss_rate::.switch_cpus.inst            1                       # mshr miss rate for demand accesses
[...]
system.switch_cpus.commit.numCommittedDist::0    864718792     89.21%     89.21% # Number of insts commited each cycle
system.switch_cpus.commit.numCommittedDist::1     35992595      3.71%     92.93% # Number of insts commited each cycle
system.switch_cpus.commit.numCommittedDist::2      4961485      0.51%     93.44% # Number of insts commited each cycle
system.switch_cpus.commit.numCommittedDist::3      9051297      0.93%     94.37% # Number of insts commited each cycle
system.switch_cpus.commit.numCommittedDist::4     10091447      1.04%     95.41% # Number of insts commited each cycle
system.switch_cpus.commit.numCommittedDist::5      3214304      0.33%     95.75% # Number of insts commited each cycle
system.switch_cpus.commit.numCommittedDist::6      4212726      0.43%     96.18% # Number of insts commited each cycle
system.switch_cpus.commit.numCommittedDist::7      3928892      0.41%     96.59% # Number of insts commited each cycle
system.switch_cpus.commit.numCommittedDist::8     33088384      3.41%    100.00% # Number of insts commited each cycle
system.switch_cpus.commit.numCommittedDist::overflows            0      0.00%    100.00% # Number of insts commited each cycle
system.switch_cpus.commit.numCommittedDist::min_value            0                       # Number of insts commited each cycle
system.switch_cpus.commit.numCommittedDist::max_value            8                       # Number of insts commited each cycle
system.switch_cpus.commit.numCommittedDist::total    969259922                       # Number of insts commited each cycle
system.switch_cpus.commit.instsCommitted    250000000                       # Number of instructions committed
system.switch_cpus.commit.opsCommitted      446992436                       # Number of ops (including micro ops) committed
system.switch_cpus.commit.memRefs           107949274                       # Number of memory references committed
system.switch_cpus.commit.loads              80236818                       # Number of loads committed
system.switch_cpus.commit.amos                      0                       # Number of atomic instructions committed
system.switch_cpus.commit.membars                 100                       # Number of memory barriers committed
system.switch_cpus.commit.branches           23624431                       # Number of branches committed
system.switch_cpus.commit.vector                    0                       # Number of committed Vector instructions.
system.switch_cpus.commit.floating          287099432                       # Number of committed floating point instructions.
system.switch_cpus.commit.integer           242688995                       # Number of committed integer instructions.
system.switch_cpus.commit.functionCalls        836070                       # Number of function calls committed.
system.switch_cpus.commit.committedInstType_0::No_OpClass       267809      0.06%      0.06% # Class of committed instruction
system.switch_cpus.commit.committedInstType_0::IntAlu    187368803     41.92%     41.98% # Class of committed instruction
system.switch_cpus.commit.committedInstType_0::IntMult            0      0.00%     41.98% # Class of committed instruction
system.switch_cpus.commit.committedInstType_0::IntDiv            0      0.00%     41.98% # Class of committed instruction
system.switch_cpus.commit.committedInstType_0::FloatAdd     72687698     16.26%     58.24% # Class of committed instruction
system.switch_cpus.commit.committedInstType_0::FloatCmp            0      0.00%     58.24% # Class of committed instruction
system.switch_cpus.commit.committedInstType_0::FloatCvt            0      0.00%     58.24% # Class of committed instruction
system.switch_cpus.commit.committedInstType_0::FloatMult            0      0.00%     58.24% # Class of committed instruction
system.switch_cpus.commit.committedInstType_0::FloatMultAcc            0      0.00%     58.24% # Class of committed instruction
system.switch_cpus.commit.committedInstType_0::FloatDiv            0      0.00%     58.24% # Class of committed instruction
system.switch_cpus.commit.committedInstType_0::FloatMisc            0      0.00%     58.24% # Class of committed instruction
system.switch_cpus.commit.committedInstType_0::FloatSqrt            0      0.00%     58.24% # Class of committed instruction
system.switch_cpus.commit.committedInstType_0::SimdAdd            0      0.00%     58.24% # Class of committed instruction
system.switch_cpus.commit.committedInstType_0::SimdAddAcc            0      0.00%     58.24% # Class of committed instruction
system.switch_cpus.commit.committedInstType_0::SimdAlu        53360      0.01%     58.25% # Class of committed instruction
system.switch_cpus.commit.committedInstType_0::SimdCmp            0      0.00%     58.25% # Class of committed instruction
system.switch_cpus.commit.committedInstType_0::SimdCvt            0      0.00%     58.25% # Class of committed instruction
system.switch_cpus.commit.committedInstType_0::SimdMisc            0      0.00%     58.25% # Class of committed instruction
system.switch_cpus.commit.committedInstType_0::SimdMult            0      0.00%     58.25% # Class of committed instruction
system.switch_cpus.commit.committedInstType_0::SimdMultAcc            0      0.00%     58.25% # Class of committed instruction
system.switch_cpus.commit.committedInstType_0::SimdShift            0      0.00%     58.25% # Class of committed instruction
system.switch_cpus.commit.committedInstType_0::SimdShiftAcc            0      0.00%     58.25% # Class of committed instruction
system.switch_cpus.commit.committedInstType_0::SimdDiv            0      0.00%     58.25% # Class of committed instruction
system.switch_cpus.commit.committedInstType_0::SimdSqrt            0      0.00%     58.25% # Class of committed instruction
system.switch_cpus.commit.committedInstType_0::SimdFloatAdd     28564265      6.39%     64.64% # Class of committed instruction
system.switch_cpus.commit.committedInstType_0::SimdFloatAlu            0      0.00%     64.64% # Class of committed instruction
system.switch_cpus.commit.committedInstType_0::SimdFloatCmp     29488972      6.60%     71.24% # Class of committed instruction
system.switch_cpus.commit.committedInstType_0::SimdFloatCvt      5675767      1.27%     72.51% # Class of committed instruction
system.switch_cpus.commit.committedInstType_0::SimdFloatDiv            0      0.00%     72.51% # Class of committed instruction
system.switch_cpus.commit.committedInstType_0::SimdFloatMisc            0      0.00%     72.51% # Class of committed instruction
system.switch_cpus.commit.committedInstType_0::SimdFloatMult     14936488      3.34%     75.85% # Class of committed instruction
system.switch_cpus.commit.committedInstType_0::SimdFloatMultAcc            0      0.00%     75.85% # Class of committed instruction
system.switch_cpus.commit.committedInstType_0::SimdFloatSqrt            0      0.00%     75.85% # Class of committed instruction
system.switch_cpus.commit.committedInstType_0::SimdReduceAdd            0      0.00%     75.85% # Class of committed instruction
system.switch_cpus.commit.committedInstType_0::SimdReduceAlu            0      0.00%     75.85% # Class of committed instruction
system.switch_cpus.commit.committedInstType_0::SimdReduceCmp            0      0.00%     75.85% # Class of committed instruction
system.switch_cpus.commit.committedInstType_0::SimdFloatReduceAdd            0      0.00%     75.85% # Class of committed instruction
system.switch_cpus.commit.committedInstType_0::SimdFloatReduceCmp            0      0.00%     75.85% # Class of committed instruction
system.switch_cpus.commit.committedInstType_0::SimdAes            0      0.00%     75.85% # Class of committed instruction
system.switch_cpus.commit.committedInstType_0::SimdAesMix            0      0.00%     75.85% # Class of committed instruction
system.switch_cpus.commit.committedInstType_0::SimdSha1Hash            0      0.00%     75.85% # Class of committed instruction
system.switch_cpus.commit.committedInstType_0::SimdSha1Hash2            0      0.00%     75.85% # Class of committed instruction
system.switch_cpus.commit.committedInstType_0::SimdSha256Hash            0      0.00%     75.85% # Class of committed instruction
system.switch_cpus.commit.committedInstType_0::SimdSha256Hash2            0      0.00%     75.85% # Class of committed instruction
system.switch_cpus.commit.committedInstType_0::SimdShaSigma2            0      0.00%     75.85% # Class of committed instruction
system.switch_cpus.commit.committedInstType_0::SimdShaSigma3            0      0.00%     75.85% # Class of committed instruction
system.switch_cpus.commit.committedInstType_0::SimdPredAlu            0      0.00%     75.85% # Class of committed instruction
system.switch_cpus.commit.committedInstType_0::MemRead     16947033      3.79%     79.64% # Class of committed instruction
system.switch_cpus.commit.committedInstType_0::MemWrite      7929961      1.77%     81.42% # Class of committed instruction
system.switch_cpus.commit.committedInstType_0::FloatMemRead     63289785     14.16%     95.57% # Class of committed instruction
system.switch_cpus.commit.committedInstType_0::FloatMemWrite     19782495      4.43%    100.00% # Class of committed instruction
system.switch_cpus.commit.committedInstType_0::IprAccess            0      0.00%    100.00% # Class of committed instruction
system.switch_cpus.commit.committedInstType_0::InstPrefetch            0      0.00%    100.00% # Class of committed instruction
system.switch_cpus.commit.committedInstType_0::total    446992436                       # Class of committed instruction
system.switch_cpus.commit.commitEligibleSamples     33088384                       # number cycles where commit BW limit reached
system.switch_cpus.decode.idleCycles         15118263                       # Number of cycles decode is idle
system.switch_cpus.decode.blockedCycles     888570012                       # Number of cycles decode is blocked
system.switch_cpus.decode.runCycles          53116648                       # Number of cycles decode is running
system.switch_cpus.decode.unblockCycles      28939175                       # Number of cycles decode is unblocking
system.switch_cpus.decode.squashCycles        1680622                       # Number of cycles decode is squashing
system.switch_cpus.decode.branchResolved     17558741                       # Number of times decode resolved a  branch
system.switch_cpus.decode.branchMispred           387                       # Number of times decode detected a branch misprediction
system.switch_cpus.decode.decodedInsts      623222874                       # Number of instructions handled by decode
system.switch_cpus.decode.squashedInsts          2379                       # Number of squashed instructions handled by decode
system.switch_cpus.dtb.rdAccesses           124046918                       # TLB accesses on read requests
system.switch_cpus.dtb.wrAccesses            65020514                       # TLB accesses on write requests
system.switch_cpus.dtb.rdMisses               2728207                       # TLB misses on read requests
system.switch_cpus.dtb.wrMisses                329619                       # TLB misses on write requests
system.switch_cpus.dtb.walker.power_state.pwrStateResidencyTicks::UNDEFINED 18547983579204                       # Cumulative time (in ticks) in various power states
system.switch_cpus.fetch.icacheStallCycles       828622                       # Number of cycles fetch is stalled on an Icache miss
system.switch_cpus.fetch.insts              357641225                       # Number of instructions fetch has processed
system.switch_cpus.fetch.branches            36383315                       # Number of branches that fetch encountered
system.switch_cpus.fetch.predictedBranches     21524034                       # Number of branches that fetch has predicted taken
system.switch_cpus.fetch.cycles             984912894                       # Number of cycles fetch has run and was not squashing or blocked
system.switch_cpus.fetch.squashCycles         3361984                       # Number of cycles fetch has spent squashing
system.switch_cpus.fetch.miscStallCycles          107                       # Number of cycles fetch has spent waiting on interrupts,or bad addresses, or out of MSHRs
system.switch_cpus.fetch.pendingTrapStallCycles         2111                       # Number of stall cycles due to pending traps
system.switch_cpus.fetch.cacheLines          45922802                       # Number of cache lines fetched
system.switch_cpus.fetch.icacheSquashes           179                       # Number of outstanding Icache misses that were squashed
system.switch_cpus.fetch.nisnDist::samples    987424726                       # Number of instructions fetched each cycle (Total)
system.switch_cpus.fetch.nisnDist::mean      0.692761                       # Number of instructions fetched each cycle (Total)
system.switch_cpus.fetch.nisnDist::stdev     2.089526                       # Number of instructions fetched each cycle (Total)
system.switch_cpus.fetch.nisnDist::underflows            0      0.00%      0.00% # Number of instructions fetched each cycle (Total)
system.switch_cpus.fetch.nisnDist::0        873926550     88.51%     88.51% # Number of instructions fetched each cycle (Total)
system.switch_cpus.fetch.nisnDist::1          4702969      0.48%     88.98% # Number of instructions fetched each cycle (Total)
system.switch_cpus.fetch.nisnDist::2         12722069      1.29%     90.27% # Number of instructions fetched each cycle (Total)
system.switch_cpus.fetch.nisnDist::3          7438391      0.75%     91.02% # Number of instructions fetched each cycle (Total)
system.switch_cpus.fetch.nisnDist::4          6532024      0.66%     91.69% # Number of instructions fetched each cycle (Total)
system.switch_cpus.fetch.nisnDist::5         10220064      1.04%     92.72% # Number of instructions fetched each cycle (Total)
system.switch_cpus.fetch.nisnDist::6          6299642      0.64%     93.36% # Number of instructions fetched each cycle (Total)
system.switch_cpus.fetch.nisnDist::7          8103527      0.82%     94.18% # Number of instructions fetched each cycle (Total)
system.switch_cpus.fetch.nisnDist::8         57479490      5.82%    100.00% # Number of instructions fetched each cycle (Total)
system.switch_cpus.fetch.nisnDist::overflows            0      0.00%    100.00% # Number of instructions fetched each cycle (Total)
system.switch_cpus.fetch.nisnDist::min_value            0                       # Number of instructions fetched each cycle (Total)
system.switch_cpus.fetch.nisnDist::max_value            8                       # Number of instructions fetched each cycle (Total)
system.switch_cpus.fetch.nisnDist::total    987424726                       # Number of instructions fetched each cycle (Total)
system.switch_cpus.fetch.branchRate          0.036846                       # Number of branch fetches per cycle
system.switch_cpus.fetch.rate                0.362186                       # Number of inst fetches per cycle
system.switch_cpus.itb.rdAccesses                   0                       # TLB accesses on read requests
system.switch_cpus.itb.wrAccesses            45922989                       # TLB accesses on write requests
system.switch_cpus.itb.rdMisses                     0                       # TLB misses on read requests
system.switch_cpus.itb.wrMisses                   216                       # TLB misses on write requests
system.switch_cpus.itb.walker.power_state.pwrStateResidencyTicks::UNDEFINED 18547983579204                       # Cumulative time (in ticks) in various power states
system.switch_cpus.lsq0.forwLoads             1071775                       # Number of loads that had data forwarded from stores
system.switch_cpus.lsq0.squashedLoads        35626744                       # Number of loads squashed
system.switch_cpus.lsq0.ignoredResponses         1377                       # Number of memory responses ignored because the instruction is squashed
system.switch_cpus.lsq0.memOrderViolation         7280                       # Number of memory ordering violations
system.switch_cpus.lsq0.squashedStores       38783901                       # Number of stores squashed
system.switch_cpus.lsq0.rescheduledLoads      7683607                       # Number of loads that were rescheduled
system.switch_cpus.lsq0.blockedByCache           3435                       # Number of times an access to memory failed due to the cache being blocked
system.switch_cpus.power_state.pwrStateResidencyTicks::OFF 328821334848                       # Cumulative time (in ticks) in various power states
system.switch_cpus.rename.squashCycles        1680622                       # Number of cycles rename is squashing
system.switch_cpus.rename.idleCycles         26307417                       # Number of cycles rename is idle
system.switch_cpus.rename.blockCycles       507513617                       # Number of cycles rename is blocking
system.switch_cpus.rename.serializeStallCycles            0                       # count of cycles rename stalledfor serializing inst
system.switch_cpus.rename.runCycles          69086707                       # Number of cycles rename is running
system.switch_cpus.rename.unblockCycles     382836357                       # Number of cycles rename is unblocking
system.switch_cpus.rename.renamedInsts      609247648                       # Number of instructions processed by rename
system.switch_cpus.rename.ROBFullEvents       6611214                       # Number of times rename has blocked due to ROB full
system.switch_cpus.rename.IQFullEvents       91640346                       # Number of times rename has blocked due to IQ full
system.switch_cpus.rename.LQFullEvents      179495129                       # Number of times rename has blocked due to LQ full
system.switch_cpus.rename.SQFullEvents      167873693                       # Number of times rename has blocked due to SQ full
system.switch_cpus.rename.renamedOperands    621420174                       # Number of destination operands rename has renamed
system.switch_cpus.rename.lookups          1455276784                       # Number of register rename lookups that rename has made
system.switch_cpus.rename.intLookups        603725467                       # Number of integer rename lookups
system.switch_cpus.rename.fpLookups         384888310                       # Number of floating rename lookups
system.switch_cpus.rename.committedMaps     472518042                       # Number of HB maps that are committed
system.switch_cpus.rename.undoneMaps        148901914                       # Number of HB maps that are undone due to squashing
system.switch_cpus.rename.serializing               0                       # count of serializing insts renamed
system.switch_cpus.rename.tempSerializing            0                       # count of temporary serializing insts renamed
system.switch_cpus.rename.skidInsts         159081961                       # count of insts added to the skid buffer
system.switch_cpus.rob.reads               1501663287                       # The number of ROB reads
system.switch_cpus.rob.writes              1177174082                       # The number of ROB writes
system.switch_cpus.thread0.numInsts         250000000                       # Number of Instructions committed
system.switch_cpus.thread0.numOps           446992436                       # Number of Ops committed
system.switch_cpus.thread0.numMemRefs               0                       # Number of Memory References
system.voltage_domain.voltage                       1                       # Voltage in Volts

---------- End Simulation Statistics   ----------
