
---------- Begin Simulation Statistics ----------
final_tick                               18548613929889                       # Number of ticks from beginning of simulation (restored from checkpoints and never reset)
host_inst_rate                                  97053                       # Simulator instruction rate (inst/s)
host_mem_usage                               17173544                       # Number of bytes of host memory used
host_op_rate                                   173527                       # Simulator op (including micro ops) rate (op/s)
host_seconds                                  2575.92                       # Real time elapsed on the host
host_tick_rate                              127896546                       # Simulator tick rate (ticks/s)
sim_freq                                 1000000000000                       # Frequency of simulated ticks
sim_insts                                   250000016                       # Number of instructions simulated
sim_ops                                     446992488                       # Number of ops (including micro ops) simulated
sim_seconds                                  0.329452                       # Number of seconds simulated
sim_ticks                                329451688863                       # Number of ticks simulated
system.cpu.Branches                                 3                       # Number of branches fetched
system.cpu.committedInsts                          16                       # Number of instructions committed
system.cpu.committedOps                            27                       # Number of ops (including micro ops) committed
system.cpu.idle_fraction                            0                       # Percentage of idle cycles
system.cpu.l2bus.snoop_filter.hit_multi_requests           20                       # Number of requests hitting in the snoop filter with multiple (>1) holders of the requested data.
system.cpu.l2bus.snoop_filter.hit_multi_snoops            0                       # Number of snoops hitting in the snoop filter with multiple (>1) holders of the requested data.
system.cpu.l2bus.snoop_filter.hit_single_requests     12234304                       # Number of requests hitting in the snoop filter with a single holder of the requested data.
system.cpu.l2bus.snoop_filter.hit_single_snoops          329                       # Number of snoops hitting in the snoop filter with a single holder of the requested data.
system.cpu.l2bus.snoop_filter.tot_requests     24466814                       # Total number of requests made to the snoop filter.
system.cpu.l2bus.snoop_filter.tot_snoops          329                       # Total number of snoops made to the snoop filter.
system.cpu.mmucache.mmubus.snoop_filter.hit_multi_requests            0                       # Number of requests hitting in the snoop filter with multiple (>1) holders of the requested data.
system.cpu.mmucache.mmubus.snoop_filter.hit_multi_snoops            0                       # Number of snoops hitting in the snoop filter with multiple (>1) holders of the requested data.
system.cpu.mmucache.mmubus.snoop_filter.hit_single_requests            0                       # Number of requests hitting in the snoop filter with a single holder of the requested data.
system.cpu.mmucache.mmubus.snoop_filter.hit_single_snoops            0                       # Number of snoops hitting in the snoop filter with a single holder of the requested data.
system.cpu.mmucache.mmubus.snoop_filter.tot_requests            0                       # Total number of requests made to the snoop filter.
system.cpu.mmucache.mmubus.snoop_filter.tot_snoops            0                       # Total number of snoops made to the snoop filter.
system.cpu.not_idle_fraction                        1                       # Percentage of non-idle cycles
system.cpu.numCycles                               32                       # number of cpu cycles simulated
system.cpu.numWorkItemsCompleted                    0                       # number of work items this cpu completed
system.cpu.numWorkItemsStarted                      0                       # number of work items this cpu started
system.cpu.num_busy_cycles                         32                       # Number of busy cycles
system.cpu.num_cc_register_reads                   41                       # number of times the CC registers were read
system.cpu.num_cc_register_writes                  10                       # number of times the CC registers were written
system.cpu.num_conditional_control_insts            3                       # number of instructions that are conditional controls
system.cpu.num_fp_alu_accesses                      9                       # Number of float alu accesses
system.cpu.num_fp_insts                             9                       # number of float instructions
system.cpu.num_fp_register_reads                   16                       # number of times the floating registers were read
system.cpu.num_fp_register_writes                   7                       # number of times the floating registers were written
system.cpu.num_func_calls                           0                       # number of times a function call or return occured
system.cpu.num_idle_cycles                          0                       # Number of idle cycles
system.cpu.num_int_alu_accesses                    19                       # Number of integer alu accesses
system.cpu.num_int_insts                           19                       # number of integer instructions
system.cpu.num_int_register_reads                  34                       # number of times the integer registers were read
system.cpu.num_int_register_writes                 15                       # number of times the integer registers were written
system.cpu.num_load_insts                           2                       # Number of load instructions
system.cpu.num_mem_refs                             2                       # number of memory refs
system.cpu.num_store_insts                          0                       # Number of store instructions
system.cpu.num_vec_alu_accesses                     0                       # Number of vector alu accesses
system.cpu.num_vec_insts                            0                       # number of vector instructions
system.cpu.num_vec_register_reads                   0                       # number of times the vector registers were read
system.cpu.num_vec_register_writes                  0                       # number of times the vector registers were written
system.cpu.op_class::No_OpClass                     0      0.00%      0.00% # Class of executed instruction
system.cpu.op_class::IntAlu                        17     62.96%     62.96% # Class of executed instruction
system.cpu.op_class::IntMult                        0      0.00%     62.96% # Class of executed instruction
system.cpu.op_class::IntDiv                         0      0.00%     62.96% # Class of executed instruction
system.cpu.op_class::FloatAdd                       2      7.41%     70.37% # Class of executed instruction
system.cpu.op_class::FloatCmp                       0      0.00%     70.37% # Class of executed instruction
system.cpu.op_class::FloatCvt                       0      0.00%     70.37% # Class of executed instruction
system.cpu.op_class::FloatMult                      0      0.00%     70.37% # Class of executed instruction
system.cpu.op_class::FloatMultAcc                   0      0.00%     70.37% # Class of executed instruction
system.cpu.op_class::FloatDiv                       0      0.00%     70.37% # Class of executed instruction
system.cpu.op_class::FloatMisc                      0      0.00%     70.37% # Class of executed instruction
system.cpu.op_class::FloatSqrt                      0      0.00%     70.37% # Class of executed instruction
system.cpu.op_class::SimdAdd                        0      0.00%     70.37% # Class of executed instruction
system.cpu.op_class::SimdAddAcc                     0      0.00%     70.37% # Class of executed instruction
system.cpu.op_class::SimdAlu                        0      0.00%     70.37% # Class of executed instruction
system.cpu.op_class::SimdCmp                        0      0.00%     70.37% # Class of executed instruction
system.cpu.op_class::SimdCvt                        0      0.00%     70.37% # Class of executed instruction
system.cpu.op_class::SimdMisc                       0      0.00%     70.37% # Class of executed instruction
system.cpu.op_class::SimdMult                       0      0.00%     70.37% # Class of executed instruction
system.cpu.op_class::SimdMultAcc                    0      0.00%     70.37% # Class of executed instruction
system.cpu.op_class::SimdShift                      0      0.00%     70.37% # Class of executed instruction
system.cpu.op_class::SimdShiftAcc                   0      0.00%     70.37% # Class of executed instruction
system.cpu.op_class::SimdDiv                        0      0.00%     70.37% # Class of executed instruction
system.cpu.op_class::SimdSqrt                       0      0.00%     70.37% # Class of executed instruction
system.cpu.op_class::SimdFloatAdd                   2      7.41%     77.78% # Class of executed instruction
system.cpu.op_class::SimdFloatAlu                   0      0.00%     77.78% # Class of executed instruction
system.cpu.op_class::SimdFloatCmp                   1      3.70%     81.48% # Class of executed instruction
system.cpu.op_class::SimdFloatCvt                   2      7.41%     88.89% # Class of executed instruction
system.cpu.op_class::SimdFloatDiv                   0      0.00%     88.89% # Class of executed instruction
system.cpu.op_class::SimdFloatMisc                  0      0.00%     88.89% # Class of executed instruction
system.cpu.op_class::SimdFloatMult                  1      3.70%     92.59% # Class of executed instruction
system.cpu.op_class::SimdFloatMultAcc               0      0.00%     92.59% # Class of executed instruction
system.cpu.op_class::SimdFloatSqrt                  0      0.00%     92.59% # Class of executed instruction
system.cpu.op_class::SimdReduceAdd                  0      0.00%     92.59% # Class of executed instruction
system.cpu.op_class::SimdReduceAlu                  0      0.00%     92.59% # Class of executed instruction
system.cpu.op_class::SimdReduceCmp                  0      0.00%     92.59% # Class of executed instruction
system.cpu.op_class::SimdFloatReduceAdd             0      0.00%     92.59% # Class of executed instruction
system.cpu.op_class::SimdFloatReduceCmp             0      0.00%     92.59% # Class of executed instruction
system.cpu.op_class::SimdAes                        0      0.00%     92.59% # Class of executed instruction
system.cpu.op_class::SimdAesMix                     0      0.00%     92.59% # Class of executed instruction
system.cpu.op_class::SimdSha1Hash                   0      0.00%     92.59% # Class of executed instruction
system.cpu.op_class::SimdSha1Hash2                  0      0.00%     92.59% # Class of executed instruction
system.cpu.op_class::SimdSha256Hash                 0      0.00%     92.59% # Class of executed instruction
system.cpu.op_class::SimdSha256Hash2                0      0.00%     92.59% # Class of executed instruction
system.cpu.op_class::SimdShaSigma2                  0      0.00%     92.59% # Class of executed instruction
system.cpu.op_class::SimdShaSigma3                  0      0.00%     92.59% # Class of executed instruction
system.cpu.op_class::SimdPredAlu                    0      0.00%     92.59% # Class of executed instruction
system.cpu.op_class::MemRead                        1      3.70%     96.30% # Class of executed instruction
system.cpu.op_class::MemWrite                       0      0.00%     96.30% # Class of executed instruction
system.cpu.op_class::FloatMemRead                   1      3.70%    100.00% # Class of executed instruction
system.cpu.op_class::FloatMemWrite                  0      0.00%    100.00% # Class of executed instruction
system.cpu.op_class::IprAccess                      0      0.00%    100.00% # Class of executed instruction
system.cpu.op_class::InstPrefetch                   0      0.00%    100.00% # Class of executed instruction
system.cpu.op_class::total                         27                       # Class of executed instruction
system.cpu.workload.numSyscalls                     0                       # Number of system calls
system.l3bus.snoop_filter.hit_multi_requests            0                       # Number of requests hitting in the snoop filter with multiple (>1) holders of the requested data.
system.l3bus.snoop_filter.hit_multi_snoops            0                       # Number of snoops hitting in the snoop filter with multiple (>1) holders of the requested data.
system.l3bus.snoop_filter.hit_single_requests      9708790                       # Number of requests hitting in the snoop filter with a single holder of the requested data.
system.l3bus.snoop_filter.hit_single_snoops            1                       # Number of snoops hitting in the snoop filter with a single holder of the requested data.
system.l3bus.snoop_filter.tot_requests       19425063                       # Total number of requests made to the snoop filter.
system.l3bus.snoop_filter.tot_snoops                1                       # Total number of snoops made to the snoop filter.
system.membus.snoop_filter.hit_multi_requests            0                       # Number of requests hitting in the snoop filter with multiple (>1) holders of the requested data.
system.membus.snoop_filter.hit_multi_snoops            0                       # Number of snoops hitting in the snoop filter with multiple (>1) holders of the requested data.
system.membus.snoop_filter.hit_single_requests      7286650                       # Number of requests hitting in the snoop filter with a single holder of the requested data.
system.membus.snoop_filter.hit_single_snoops            0                       # Number of snoops hitting in the snoop filter with a single holder of the requested data.
system.membus.snoop_filter.tot_requests      14638863                       # Total number of requests made to the snoop filter.
system.membus.snoop_filter.tot_snoops               0                       # Total number of snoops made to the snoop filter.
system.switch_cpus.cc_regfile_reads         199305897                       # number of cc regfile reads
system.switch_cpus.cc_regfile_writes        122790932                       # number of cc regfile writes
system.switch_cpus.committedInsts           250000000                       # Number of Instructions Simulated
system.switch_cpus.committedOps             446992461                       # Number of Ops (including micro ops) Simulated
system.switch_cpus.cpi                       3.957378                       # CPI: Cycles Per Instruction
system.switch_cpus.cpi_total                 3.957378                       # CPI: Total CPI of All Threads
system.switch_cpus.fp_regfile_reads         381767501                       # number of floating regfile reads
system.switch_cpus.fp_regfile_writes        287568206                       # number of floating regfile writes
system.switch_cpus.idleCycles                   27683                       # Total number of cycles that the CPU has spent unscheduled due to idling
system.switch_cpus.iew.branchMispredicts       643032                       # Number of branch mispredicts detected at execute
system.switch_cpus.iew.exec_branches         29392894                       # Number of branches executed
system.switch_cpus.iew.exec_nop                     0                       # number of nop insts executed
system.switch_cpus.iew.exec_rate             0.607117                       # Inst execution rate
system.switch_cpus.iew.exec_refs            186937200                       # number of memory reference insts executed
system.switch_cpus.iew.exec_stores           65016991                       # Number of stores executed
system.switch_cpus.iew.exec_swp                     0                       # number of swp insts executed
system.switch_cpus.iew.iewBlockCycles       183167886                       # Number of cycles IEW is blocking
system.switch_cpus.iew.iewDispLoadInsts     115865798                       # Number of dispatched load instructions
system.switch_cpus.iew.iewDispNonSpecInsts          118                       # Number of dispatched non-speculative instructions
system.switch_cpus.iew.iewDispSquashedInsts         8553                       # Number of squashed instructions skipped by dispatch
system.switch_cpus.iew.iewDispStoreInsts     66498360                       # Number of dispatched store instructions
system.switch_cpus.iew.iewDispatchedInsts    604057319                       # Number of instructions dispatched to IQ
system.switch_cpus.iew.iewExecLoadInsts     121920209                       # Number of load instructions executed
system.switch_cpus.iew.iewExecSquashedInsts      1438897                       # Number of squashed instructions skipped in execute
system.switch_cpus.iew.iewExecutedInsts     600647659                       # Number of executed instructions
system.switch_cpus.iew.iewIQFullEvents        1444827                       # Number of times the IQ has become full, causing a stall
system.switch_cpus.iew.iewIdleCycles                0                       # Number of cycles IEW is idle
system.switch_cpus.iew.iewLSQFullEvents     213603155                       # Number of times the LSQ has become full, causing a stall
system.switch_cpus.iew.iewSquashCycles        1680779                       # Number of cycles IEW is squashing
system.switch_cpus.iew.iewUnblockCycles     215831638                       # Number of cycles IEW is unblocking
system.switch_cpus.iew.memOrderViolationEvents         7357                       # Number of memory order violations
system.switch_cpus.iew.predictedNotTakenIncorrect       319764                       # Number of branches that were predicted not taken incorrectly
system.switch_cpus.iew.predictedTakenIncorrect       323268                       # Number of branches that were predicted taken incorrectly
system.switch_cpus.iew.wb_consumers         555798111                       # num instructions consuming a value
system.switch_cpus.iew.wb_count             577975385                       # cumulative count of insts written-back
system.switch_cpus.iew.wb_fanout             0.619174                       # average fanout of values written-back
system.switch_cpus.iew.wb_producers         344135878                       # num instructions producing a value
system.switch_cpus.iew.wb_rate               0.584200                       # insts written-back per cycle
system.switch_cpus.iew.wb_sent              591147092                       # cumulative count of insts sent to commit
system.switch_cpus.int_regfile_reads        593223157                       # number of integer regfile reads
system.switch_cpus.int_regfile_writes       190529237                       # number of integer regfile writes
system.switch_cpus.ipc                       0.252693                       # IPC: Instructions Per Cycle
system.switch_cpus.ipc_total                 0.252693                       # IPC: Total IPC of All Threads
system.switch_cpus.iq.FU_type_0::No_OpClass     13184285      2.19%      2.19% # Type of FU issued
system.switch_cpus.iq.FU_type_0::IntAlu     248823521     41.33%     43.52% # Type of FU issued
system.switch_cpus.iq.FU_type_0::IntMult            0      0.00%     43.52% # Type of FU issued
system.switch_cpus.iq.FU_type_0::IntDiv             0      0.00%     43.52% # Type of FU issued
system.switch_cpus.iq.FU_type_0::FloatAdd     73630800     12.23%     55.75% # Type of FU issued
system.switch_cpus.iq.FU_type_0::FloatCmp            0      0.00%     55.75% # Type of FU issued
system.switch_cpus.iq.FU_type_0::FloatCvt            0      0.00%     55.75% # Type of FU issued
system.switch_cpus.iq.FU_type_0::FloatMult            0      0.00%     55.75% # Type of FU issued
system.switch_cpus.iq.FU_type_0::FloatMultAcc            0      0.00%     55.75% # Type of FU issued
system.switch_cpus.iq.FU_type_0::FloatDiv            0      0.00%     55.75% # Type of FU issued
system.switch_cpus.iq.FU_type_0::FloatMisc            0      0.00%     55.75% # Type of FU issued
system.switch_cpus.iq.FU_type_0::FloatSqrt            0      0.00%     55.75% # Type of FU issued
system.switch_cpus.iq.FU_type_0::SimdAdd            0      0.00%     55.75% # Type of FU issued
system.switch_cpus.iq.FU_type_0::SimdAddAcc            0      0.00%     55.75% # Type of FU issued
system.switch_cpus.iq.FU_type_0::SimdAlu        58154      0.01%     55.76% # Type of FU issued
system.switch_cpus.iq.FU_type_0::SimdCmp            0      0.00%     55.76% # Type of FU issued
system.switch_cpus.iq.FU_type_0::SimdCvt            0      0.00%     55.76% # Type of FU issued
system.switch_cpus.iq.FU_type_0::SimdMisc            0      0.00%     55.76% # Type of FU issued
system.switch_cpus.iq.FU_type_0::SimdMult            0      0.00%     55.76% # Type of FU issued
system.switch_cpus.iq.FU_type_0::SimdMultAcc            0      0.00%     55.76% # Type of FU issued
system.switch_cpus.iq.FU_type_0::SimdShift            0      0.00%     55.76% # Type of FU issued
system.switch_cpus.iq.FU_type_0::SimdShiftAcc            0      0.00%     55.76% # Type of FU issued
system.switch_cpus.iq.FU_type_0::SimdDiv            0      0.00%     55.76% # Type of FU issued
system.switch_cpus.iq.FU_type_0::SimdSqrt            0      0.00%     55.76% # Type of FU issued
system.switch_cpus.iq.FU_type_0::SimdFloatAdd     28710513      4.77%     60.52% # Type of FU issued
system.switch_cpus.iq.FU_type_0::SimdFloatAlu            0      0.00%     60.52% # Type of FU issued
system.switch_cpus.iq.FU_type_0::SimdFloatCmp     29650996      4.92%     65.45% # Type of FU issued
system.switch_cpus.iq.FU_type_0::SimdFloatCvt      5713928      0.95%     66.40% # Type of FU issued
system.switch_cpus.iq.FU_type_0::SimdFloatDiv            0      0.00%     66.40% # Type of FU issued
system.switch_cpus.iq.FU_type_0::SimdFloatMisc            0      0.00%     66.40% # Type of FU issued
system.switch_cpus.iq.FU_type_0::SimdFloatMult     15000248      2.49%     68.89% # Type of FU issued
system.switch_cpus.iq.FU_type_0::SimdFloatMultAcc            0      0.00%     68.89% # Type of FU issued
system.switch_cpus.iq.FU_type_0::SimdFloatSqrt            0      0.00%     68.89% # Type of FU issued
system.switch_cpus.iq.FU_type_0::SimdReduceAdd            0      0.00%     68.89% # Type of FU issued
system.switch_cpus.iq.FU_type_0::SimdReduceAlu            0      0.00%     68.89% # Type of FU issued
system.switch_cpus.iq.FU_type_0::SimdReduceCmp            0      0.00%     68.89% # Type of FU issued
system.switch_cpus.iq.FU_type_0::SimdFloatReduceAdd            0      0.00%     68.89% # Type of FU issued
system.switch_cpus.iq.FU_type_0::SimdFloatReduceCmp            0      0.00%     68.89% # Type of FU issued
system.switch_cpus.iq.FU_type_0::SimdAes            0      0.00%     68.89% # Type of FU issued
system.switch_cpus.iq.FU_type_0::SimdAesMix            0      0.00%     68.89% # Type of FU issued
system.switch_cpus.iq.FU_type_0::SimdSha1Hash            0      0.00%     68.89% # Type of FU issued
system.switch_cpus.iq.FU_type_0::SimdSha1Hash2            0      0.00%     68.89% # Type of FU issued
system.switch_cpus.iq.FU_type_0::SimdSha256Hash            0      0.00%     68.89% # Type of FU issued
system.switch_cpus.iq.FU_type_0::SimdSha256Hash2            0      0.00%     68.89% # Type of FU issued
system.switch_cpus.iq.FU_type_0::SimdShaSigma2            0      0.00%     68.89% # Type of FU issued
system.switch_cpus.iq.FU_type_0::SimdShaSigma3            0      0.00%     68.89% # Type of FU issued
system.switch_cpus.iq.FU_type_0::SimdPredAlu            0      0.00%     68.89% # Type of FU issued
system.switch_cpus.iq.FU_type_0::MemRead     26974652      4.48%     73.37% # Type of FU issued
system.switch_cpus.iq.FU_type_0::MemWrite     21643767      3.59%     76.96% # Type of FU issued
system.switch_cpus.iq.FU_type_0::FloatMemRead     95211230     15.81%     92.78% # Type of FU issued
system.switch_cpus.iq.FU_type_0::FloatMemWrite     43484468      7.22%    100.00% # Type of FU issued
system.switch_cpus.iq.FU_type_0::IprAccess            0      0.00%    100.00% # Type of FU issued
system.switch_cpus.iq.FU_type_0::InstPrefetch            0      0.00%    100.00% # Type of FU issued
system.switch_cpus.iq.FU_type_0::total      602086562                       # Type of FU issued
system.switch_cpus.iq.fp_alu_accesses       359695151                       # Number of floating point alu accesses
system.switch_cpus.iq.fp_inst_queue_reads    704558786                       # Number of floating instruction queue reads
system.switch_cpus.iq.fp_inst_queue_wakeup_accesses    336684077                       # Number of floating instruction queue wakeup accesses
system.switch_cpus.iq.fp_inst_queue_writes    389251984                       # Number of floating instruction queue writes
system.switch_cpus.iq.fu_busy_cnt            24923347                       # FU busy when requested
system.switch_cpus.iq.fu_busy_rate           0.041395                       # FU busy rate (busy events/executed inst)
system.switch_cpus.iq.fu_full::No_OpClass            0      0.00%      0.00% # attempts to use FU when none available
system.switch_cpus.iq.fu_full::IntAlu         1350951      5.42%      5.42% # attempts to use FU when none available
system.switch_cpus.iq.fu_full::IntMult              0      0.00%      5.42% # attempts to use FU when none available
system.switch_cpus.iq.fu_full::IntDiv               0      0.00%      5.42% # attempts to use FU when none available
system.switch_cpus.iq.fu_full::FloatAdd         21759      0.09%      5.51% # attempts to use FU when none available
system.switch_cpus.iq.fu_full::FloatCmp             0      0.00%      5.51% # attempts to use FU when none available
system.switch_cpus.iq.fu_full::FloatCvt             0      0.00%      5.51% # attempts to use FU when none available
system.switch_cpus.iq.fu_full::FloatMult            0      0.00%      5.51% # attempts to use FU when none available
system.switch_cpus.iq.fu_full::FloatMultAcc            0      0.00%      5.51% # attempts to use FU when none available
system.switch_cpus.iq.fu_full::FloatDiv             0      0.00%      5.51% # attempts to use FU when none available
system.switch_cpus.iq.fu_full::FloatMisc            0      0.00%      5.51% # attempts to use FU when none available
system.switch_cpus.iq.fu_full::FloatSqrt            0      0.00%      5.51% # attempts to use FU when none available
system.switch_cpus.iq.fu_full::SimdAdd              0      0.00%      5.51% # attempts to use FU when none available
system.switch_cpus.iq.fu_full::SimdAddAcc            0      0.00%      5.51% # attempts to use FU when none available
system.switch_cpus.iq.fu_full::SimdAlu              0      0.00%      5.51% # attempts to use FU when none available
system.switch_cpus.iq.fu_full::SimdCmp              0      0.00%      5.51% # attempts to use FU when none available
system.switch_cpus.iq.fu_full::SimdCvt              0      0.00%      5.51% # attempts to use FU when none available
system.switch_cpus.iq.fu_full::SimdMisc             0      0.00%      5.51% # attempts to use FU when none available
system.switch_cpus.iq.fu_full::SimdMult             0      0.00%      5.51% # attempts to use FU when none available
system.switch_cpus.iq.fu_full::SimdMultAcc            0      0.00%      5.51% # attempts to use FU when none available
system.switch_cpus.iq.fu_full::SimdShift            0      0.00%      5.51% # attempts to use FU when none available
system.switch_cpus.iq.fu_full::SimdShiftAcc            0      0.00%      5.51% # attempts to use FU when none available
system.switch_cpus.iq.fu_full::SimdDiv              0      0.00%      5.51% # attempts to use FU when none available
system.switch_cpus.iq.fu_full::SimdSqrt             0      0.00%      5.51% # attempts to use FU when none available
system.switch_cpus.iq.fu_full::SimdFloatAdd       220846      0.89%      6.39% # attempts to use FU when none available
system.switch_cpus.iq.fu_full::SimdFloatAlu            0      0.00%      6.39% # attempts to use FU when none available
system.switch_cpus.iq.fu_full::SimdFloatCmp       913992      3.67%     10.06% # attempts to use FU when none available
system.switch_cpus.iq.fu_full::SimdFloatCvt            0      0.00%     10.06% # attempts to use FU when none available
system.switch_cpus.iq.fu_full::SimdFloatDiv            0      0.00%     10.06% # attempts to use FU when none available
system.switch_cpus.iq.fu_full::SimdFloatMisc            0      0.00%     10.06% # attempts to use FU when none available
system.switch_cpus.iq.fu_full::SimdFloatMult        29737      0.12%     10.18% # attempts to use FU when none available
system.switch_cpus.iq.fu_full::SimdFloatMultAcc            0      0.00%     10.18% # attempts to use FU when none available
system.switch_cpus.iq.fu_full::SimdFloatSqrt            0      0.00%     10.18% # attempts to use FU when none available
system.switch_cpus.iq.fu_full::SimdReduceAdd            0      0.00%     10.18% # attempts to use FU when none available
system.switch_cpus.iq.fu_full::SimdReduceAlu            0      0.00%     10.18% # attempts to use FU when none available
system.switch_cpus.iq.fu_full::SimdReduceCmp            0      0.00%     10.18% # attempts to use FU when none available
system.switch_cpus.iq.fu_full::SimdFloatReduceAdd            0      0.00%     10.18% # attempts to use FU when none available
system.switch_cpus.iq.fu_full::SimdFloatReduceCmp            0      0.00%     10.18% # attempts to use FU when none available
system.switch_cpus.iq.fu_full::SimdAes              0      0.00%     10.18% # attempts to use FU when none available
system.switch_cpus.iq.fu_full::SimdAesMix            0      0.00%     10.18% # attempts to use FU when none available
system.switch_cpus.iq.fu_full::SimdSha1Hash            0      0.00%     10.18% # attempts to use FU when none available
system.switch_cpus.iq.fu_full::SimdSha1Hash2            0      0.00%     10.18% # attempts to use FU when none available
system.switch_cpus.iq.fu_full::SimdSha256Hash            0      0.00%     10.18% # attempts to use FU when none available
system.switch_cpus.iq.fu_full::SimdSha256Hash2            0      0.00%     10.18% # attempts to use FU when none available
system.switch_cpus.iq.fu_full::SimdShaSigma2            0      0.00%     10.18% # attempts to use FU when none available
system.switch_cpus.iq.fu_full::SimdShaSigma3            0      0.00%     10.18% # attempts to use FU when none available
system.switch_cpus.iq.fu_full::SimdPredAlu            0      0.00%     10.18% # attempts to use FU when none available
system.switch_cpus.iq.fu_full::MemRead        1848622      7.42%     17.60% # attempts to use FU when none available
system.switch_cpus.iq.fu_full::MemWrite       6897231     27.67%     45.27% # attempts to use FU when none available
system.switch_cpus.iq.fu_full::FloatMemRead      9902221     39.73%     85.00% # attempts to use FU when none available
system.switch_cpus.iq.fu_full::FloatMemWrite      3737988     15.00%    100.00% # attempts to use FU when none available
system.switch_cpus.iq.fu_full::IprAccess            0      0.00%    100.00% # attempts to use FU when none available
system.switch_cpus.iq.fu_full::InstPrefetch            0      0.00%    100.00% # attempts to use FU when none available
system.switch_cpus.iq.int_alu_accesses      254130473                       # Number of integer alu accesses
system.switch_cpus.iq.int_inst_queue_reads   1514052317                       # Number of integer instruction queue reads
system.switch_cpus.iq.int_inst_queue_wakeup_accesses    241291308                       # Number of integer instruction queue wakeup accesses
system.switch_cpus.iq.int_inst_queue_writes    371877278                       # Number of integer instruction queue writes
system.switch_cpus.iq.iqInstsAdded          604046908                       # Number of instructions added to the IQ (excludes non-spec)
system.switch_cpus.iq.iqInstsIssued         602086562                       # Number of instructions issued
system.switch_cpus.iq.iqNonSpecInstsAdded        10411                       # Number of non-speculative instructions added to the IQ
system.switch_cpus.iq.iqSquashedInstsExamined    157064799                       # Number of squashed instructions iterated over during squash; mainly for profiling
system.switch_cpus.iq.iqSquashedInstsIssued       197942                       # Number of squashed instructions issued
system.switch_cpus.iq.iqSquashedNonSpecRemoved         9369                       # Number of squashed non-spec instructions that were removed
system.switch_cpus.iq.iqSquashedOperandsExamined     49638746                       # Number of squashed operands that are examined and possibly removed from graph
system.switch_cpus.iq.issued_per_cycle::samples    989316696                       # Number of insts issued each cycle
system.switch_cpus.iq.issued_per_cycle::mean     0.608588                       # Number of insts issued each cycle
system.switch_cpus.iq.issued_per_cycle::stdev     1.661932                       # Number of insts issued each cycle
system.switch_cpus.iq.issued_per_cycle::underflows            0      0.00%      0.00% # Number of insts issued each cycle
system.switch_cpus.iq.issued_per_cycle::0    826098272     83.50%     83.50% # Number of insts issued each cycle
system.switch_cpus.iq.issued_per_cycle::1     38773930      3.92%     87.42% # Number of insts issued each cycle
system.switch_cpus.iq.issued_per_cycle::2     26991561      2.73%     90.15% # Number of insts issued each cycle
system.switch_cpus.iq.issued_per_cycle::3     20371144      2.06%     92.21% # Number of insts issued each cycle
system.switch_cpus.iq.issued_per_cycle::4     19605401      1.98%     94.19% # Number of insts issued each cycle
system.switch_cpus.iq.issued_per_cycle::5     15768986      1.59%     95.78% # Number of insts issued each cycle
system.switch_cpus.iq.issued_per_cycle::6     16156022      1.63%     97.42% # Number of insts issued each cycle
system.switch_cpus.iq.issued_per_cycle::7     10397628      1.05%     98.47% # Number of insts issued each cycle
system.switch_cpus.iq.issued_per_cycle::8     15153752      1.53%    100.00% # Number of insts issued each cycle
system.switch_cpus.iq.issued_per_cycle::overflows            0      0.00%    100.00% # Number of insts issued each cycle
system.switch_cpus.iq.issued_per_cycle::min_value            0                       # Number of insts issued each cycle
system.switch_cpus.iq.issued_per_cycle::max_value            8                       # Number of insts issued each cycle
system.switch_cpus.iq.issued_per_cycle::total    989316696                       # Number of insts issued each cycle
system.switch_cpus.iq.rate                   0.608571                       # Inst issue rate
system.switch_cpus.iq.vec_alu_accesses              0                       # Number of vector alu accesses
system.switch_cpus.iq.vec_inst_queue_reads            0                       # Number of vector instruction queue reads
system.switch_cpus.iq.vec_inst_queue_wakeup_accesses            0                       # Number of vector instruction queue wakeup accesses
system.switch_cpus.iq.vec_inst_queue_writes            0                       # Number of vector instruction queue writes
system.switch_cpus.memDep0.conflictingLoads     17465340                       # Number of conflicting loads.
system.switch_cpus.memDep0.conflictingStores     16948072                       # Number of conflicting stores.
system.switch_cpus.memDep0.insertedLoads    115865798                       # Number of loads inserted to the mem dependence unit.
system.switch_cpus.memDep0.insertedStores     66498360                       # Number of stores inserted to the mem dependence unit.
system.switch_cpus.misc_regfile_reads       247243962                       # number of misc regfile reads
system.switch_cpus.misc_regfile_writes              1                       # number of misc regfile writes
system.switch_cpus.numCycles                989344379                       # number of cpu cycles simulated
system.switch_cpus.numWorkItemsCompleted            0                       # number of work items this cpu completed
system.switch_cpus.numWorkItemsStarted              0                       # number of work items this cpu started
system.switch_cpus.timesIdled                     141                       # Number of times that the entire CPU went into an idle state and unscheduled itself
system.clk_domain.clock                           333                       # Clock period in ticks
system.cpu.dcache.demand_hits::.switch_cpus.data     99580696                       # number of demand (read+write) hits
system.cpu.dcache.demand_hits::total         99580696                       # number of demand (read+write) hits
system.cpu.dcache.overall_hits::.switch_cpus.data    105252279                       # number of overall hits
system.cpu.dcache.overall_hits::total       105252279                       # number of overall hits
system.cpu.dcache.demand_misses::.cpu.data            2                       # number of demand (read+write) misses
system.cpu.dcache.demand_misses::.switch_cpus.data     36047587                       # number of demand (read+write) misses
system.cpu.dcache.demand_misses::total       36047589                       # number of demand (read+write) misses
system.cpu.dcache.overall_misses::.cpu.data            2                       # number of overall misses
system.cpu.dcache.overall_misses::.switch_cpus.data     36969647                       # number of overall misses
system.cpu.dcache.overall_misses::total      36969649                       # number of overall misses
system.cpu.dcache.demand_miss_latency::.switch_cpus.data 1972729853712                       # number of demand (read+write) miss cycles
system.cpu.dcache.demand_miss_latency::total 1972729853712                       # number of demand (read+write) miss cycles
system.cpu.dcache.overall_miss_latency::.switch_cpus.data 1972729853712                       # number of overall miss cycles
system.cpu.dcache.overall_miss_latency::total 1972729853712                       # number of overall miss cycles
system.cpu.dcache.demand_accesses::.cpu.data            2                       # number of demand (read+write) accesses
system.cpu.dcache.demand_accesses::.switch_cpus.data    135628283                       # number of demand (read+write) accesses
system.cpu.dcache.demand_accesses::total    135628285                       # number of demand (read+write) accesses
system.cpu.dcache.overall_accesses::.cpu.data            2                       # number of overall (read+write) accesses
system.cpu.dcache.overall_accesses::.switch_cpus.data    142221926                       # number of overall (read+write) accesses
system.cpu.dcache.overall_accesses::total    142221928                       # number of overall (read+write) accesses
system.cpu.dcache.demand_miss_rate::.cpu.data            1                       # miss rate for demand accesses
system.cpu.dcache.demand_miss_rate::.switch_cpus.data     0.265782                       # miss rate for demand accesses
system.cpu.dcache.demand_miss_rate::total     0.265782                       # miss rate for demand accesses
system.cpu.dcache.overall_miss_rate::.cpu.data            1                       # miss rate for overall accesses
system.cpu.dcache.overall_miss_rate::.switch_cpus.data     0.259943                       # miss rate for overall accesses
system.cpu.dcache.overall_miss_rate::total     0.259943                       # miss rate for overall accesses
system.cpu.dcache.demand_avg_miss_latency::.switch_cpus.data 54725.711702                       # average overall miss latency
system.cpu.dcache.demand_avg_miss_latency::total 54725.708666                       # average overall miss latency
system.cpu.dcache.overall_avg_miss_latency::.switch_cpus.data 53360.797676                       # average overall miss latency
system.cpu.dcache.overall_avg_miss_latency::total 53360.794789                       # average overall miss latency
system.cpu.dcache.blocked_cycles::no_mshrs            0                       # number of cycles access was blocked
system.cpu.dcache.blocked_cycles::no_targets       584898                       # number of cycles access was blocked
system.cpu.dcache.blocked::no_mshrs                 0                       # number of cycles access was blocked
system.cpu.dcache.blocked::no_targets            3684                       # number of cycles access was blocked
system.cpu.dcache.avg_blocked_cycles::no_mshrs          nan                       # average number of cycles each access was blocked
system.cpu.dcache.avg_blocked_cycles::no_targets   158.767101                       # average number of cycles each access was blocked
system.cpu.dcache.writebacks::.writebacks     12231719                       # number of writebacks
system.cpu.dcache.writebacks::total          12231719                       # number of writebacks
system.cpu.dcache.demand_mshr_hits::.switch_cpus.data     24229062                       # number of demand (read+write) MSHR hits
system.cpu.dcache.demand_mshr_hits::total     24229062                       # number of demand (read+write) MSHR hits
system.cpu.dcache.overall_mshr_hits::.switch_cpus.data     24229062                       # number of overall MSHR hits
system.cpu.dcache.overall_mshr_hits::total     24229062                       # number of overall MSHR hits
system.cpu.dcache.demand_mshr_misses::.switch_cpus.data     11818525                       # number of demand (read+write) MSHR misses
system.cpu.dcache.demand_mshr_misses::total     11818525                       # number of demand (read+write) MSHR misses
system.cpu.dcache.overall_mshr_misses::.switch_cpus.data     12234777                       # number of overall MSHR misses
system.cpu.dcache.overall_mshr_misses::total     12234777                       # number of overall MSHR misses
system.cpu.dcache.demand_mshr_miss_latency::.switch_cpus.data 768379770351                       # number of demand (read+write) MSHR miss cycles
system.cpu.dcache.demand_mshr_miss_latency::total 768379770351                       # number of demand (read+write) MSHR miss cycles
system.cpu.dcache.overall_mshr_miss_latency::.switch_cpus.data 799190546400                       # number of overall MSHR miss cycles
system.cpu.dcache.overall_mshr_miss_latency::total 799190546400                       # number of overall MSHR miss cycles
system.cpu.dcache.demand_mshr_miss_rate::.switch_cpus.data     0.087139                       # mshr miss rate for demand accesses
system.cpu.dcache.demand_mshr_miss_rate::total     0.087139                       # mshr miss rate for demand accesses
system.cpu.dcache.overall_mshr_miss_rate::.switch_cpus.data     0.086026                       # mshr miss rate for overall accesses
system.cpu.dcache.overall_mshr_miss_rate::total     0.086026                       # mshr miss rate for overall accesses
system.cpu.dcache.demand_avg_mshr_miss_latency::.switch_cpus.data 65014.861867                       # average overall mshr miss latency
system.cpu.dcache.demand_avg_mshr_miss_latency::total 65014.861867                       # average overall mshr miss latency
system.cpu.dcache.overall_avg_mshr_miss_latency::.switch_cpus.data 65321.218883                       # average overall mshr miss latency
system.cpu.dcache.overall_avg_mshr_miss_latency::total 65321.218883                       # average overall mshr miss latency
system.cpu.dcache.replacements               12231719                       # number of replacements
system.cpu.dcache.ReadReq_hits::.switch_cpus.data     74524222                       # number of ReadReq hits
system.cpu.dcache.ReadReq_hits::total        74524222                       # number of ReadReq hits
system.cpu.dcache.ReadReq_misses::.cpu.data            2                       # number of ReadReq misses
system.cpu.dcache.ReadReq_misses::.switch_cpus.data     33389271                       # number of ReadReq misses
system.cpu.dcache.ReadReq_misses::total      33389273                       # number of ReadReq misses
system.cpu.dcache.ReadReq_miss_latency::.switch_cpus.data 1781017242291                       # number of ReadReq miss cycles
system.cpu.dcache.ReadReq_miss_latency::total 1781017242291                       # number of ReadReq miss cycles
system.cpu.dcache.ReadReq_accesses::.cpu.data            2                       # number of ReadReq accesses(hits+misses)
system.cpu.dcache.ReadReq_accesses::.switch_cpus.data    107913493                       # number of ReadReq accesses(hits+misses)
system.cpu.dcache.ReadReq_accesses::total    107913495                       # number of ReadReq accesses(hits+misses)
system.cpu.dcache.ReadReq_miss_rate::.cpu.data            1                       # miss rate for ReadReq accesses
system.cpu.dcache.ReadReq_miss_rate::.switch_cpus.data     0.309408                       # miss rate for ReadReq accesses
system.cpu.dcache.ReadReq_miss_rate::total     0.309408                       # miss rate for ReadReq accesses
system.cpu.dcache.ReadReq_avg_miss_latency::.switch_cpus.data 53341.004129                       # average ReadReq miss latency
system.cpu.dcache.ReadReq_avg_miss_latency::total 53341.000934                       # average ReadReq miss latency
system.cpu.dcache.ReadReq_mshr_hits::.switch_cpus.data     24228819                       # number of ReadReq MSHR hits
system.cpu.dcache.ReadReq_mshr_hits::total     24228819                       # number of ReadReq MSHR hits
system.cpu.dcache.ReadReq_mshr_misses::.switch_cpus.data      9160452                       # number of ReadReq MSHR misses
system.cpu.dcache.ReadReq_mshr_misses::total      9160452                       # number of ReadReq MSHR misses
system.cpu.dcache.ReadReq_mshr_miss_latency::.switch_cpus.data 577563431427                       # number of ReadReq MSHR miss cycles
system.cpu.dcache.ReadReq_mshr_miss_latency::total 577563431427                       # number of ReadReq MSHR miss cycles
system.cpu.dcache.ReadReq_mshr_miss_rate::.switch_cpus.data     0.084887                       # mshr miss rate for ReadReq accesses
system.cpu.dcache.ReadReq_mshr_miss_rate::total     0.084887                       # mshr miss rate for ReadReq accesses
system.cpu.dcache.ReadReq_avg_mshr_miss_latency::.switch_cpus.data 63049.665172                       # average ReadReq mshr miss latency
system.cpu.dcache.ReadReq_avg_mshr_miss_latency::total 63049.665172                       # average ReadReq mshr miss latency
system.cpu.dcache.WriteReq_hits::.switch_cpus.data     25056474                       # number of WriteReq hits
system.cpu.dcache.WriteReq_hits::total       25056474                       # number of WriteReq hits
system.cpu.dcache.WriteReq_misses::.switch_cpus.data      2658316                       # number of WriteReq misses
system.cpu.dcache.WriteReq_misses::total      2658316                       # number of WriteReq misses
system.cpu.dcache.WriteReq_miss_latency::.switch_cpus.data 191712611421                       # number of WriteReq miss cycles
system.cpu.dcache.WriteReq_miss_latency::total 191712611421                       # number of WriteReq miss cycles
system.cpu.dcache.WriteReq_accesses::.switch_cpus.data     27714790                       # number of WriteReq accesses(hits+misses)
system.cpu.dcache.WriteReq_accesses::total     27714790                       # number of WriteReq accesses(hits+misses)
system.cpu.dcache.WriteReq_miss_rate::.switch_cpus.data     0.095917                       # miss rate for WriteReq accesses
system.cpu.dcache.WriteReq_miss_rate::total     0.095917                       # miss rate for WriteReq accesses
system.cpu.dcache.WriteReq_avg_miss_latency::.switch_cpus.data 72118.067010                       # average WriteReq miss latency
system.cpu.dcache.WriteReq_avg_miss_latency::total 72118.067010                       # average WriteReq miss latency
system.cpu.dcache.WriteReq_mshr_hits::.switch_cpus.data          243                       # number of WriteReq MSHR hits
system.cpu.dcache.WriteReq_mshr_hits::total          243                       # number of WriteReq MSHR hits
system.cpu.dcache.WriteReq_mshr_misses::.switch_cpus.data      2658073                       # number of WriteReq MSHR misses
system.cpu.dcache.WriteReq_mshr_misses::total      2658073                       # number of WriteReq MSHR misses
system.cpu.dcache.WriteReq_mshr_miss_latency::.switch_cpus.data 190816338924                       # number of WriteReq MSHR miss cycles
system.cpu.dcache.WriteReq_mshr_miss_latency::total 190816338924                       # number of WriteReq MSHR miss cycles
system.cpu.dcache.WriteReq_mshr_miss_rate::.switch_cpus.data     0.095908                       # mshr miss rate for WriteReq accesses
system.cpu.dcache.WriteReq_mshr_miss_rate::total     0.095908                       # mshr miss rate for WriteReq accesses
system.cpu.dcache.WriteReq_avg_mshr_miss_latency::.switch_cpus.data 71787.471196                       # average WriteReq mshr miss latency
system.cpu.dcache.WriteReq_avg_mshr_miss_latency::total 71787.471196                       # average WriteReq mshr miss latency
system.cpu.dcache.SoftPFReq_hits::.switch_cpus.data      5671583                       # number of SoftPFReq hits
system.cpu.dcache.SoftPFReq_hits::total       5671583                       # number of SoftPFReq hits
system.cpu.dcache.SoftPFReq_misses::.switch_cpus.data       922060                       # number of SoftPFReq misses
system.cpu.dcache.SoftPFReq_misses::total       922060                       # number of SoftPFReq misses
system.cpu.dcache.SoftPFReq_accesses::.switch_cpus.data      6593643                       # number of SoftPFReq accesses(hits+misses)
system.cpu.dcache.SoftPFReq_accesses::total      6593643                       # number of SoftPFReq accesses(hits+misses)
system.cpu.dcache.SoftPFReq_miss_rate::.switch_cpus.data     0.139841                       # miss rate for SoftPFReq accesses
system.cpu.dcache.SoftPFReq_miss_rate::total     0.139841                       # miss rate for SoftPFReq accesses
system.cpu.dcache.SoftPFReq_mshr_misses::.switch_cpus.data       416252                       # number of SoftPFReq MSHR misses
system.cpu.dcache.SoftPFReq_mshr_misses::total       416252                       # number of SoftPFReq MSHR misses
system.cpu.dcache.SoftPFReq_mshr_miss_latency::.switch_cpus.data  30810776049                       # number of SoftPFReq MSHR miss cycles
system.cpu.dcache.SoftPFReq_mshr_miss_latency::total  30810776049                       # number of SoftPFReq MSHR miss cycles
system.cpu.dcache.SoftPFReq_mshr_miss_rate::.switch_cpus.data     0.063129                       # mshr miss rate for SoftPFReq accesses
system.cpu.dcache.SoftPFReq_mshr_miss_rate::total     0.063129                       # mshr miss rate for SoftPFReq accesses
system.cpu.dcache.SoftPFReq_avg_mshr_miss_latency::.switch_cpus.data 74019.526751                       # average SoftPFReq mshr miss latency
system.cpu.dcache.SoftPFReq_avg_mshr_miss_latency::total 74019.526751                       # average SoftPFReq mshr miss latency
system.cpu.dcache.power_state.pwrStateResidencyTicks::UNDEFINED 18548613929889                       # Cumulative time (in ticks) in various power states
system.cpu.dcache.tags.tagsinuse           511.982175                       # Cycle average of tags in use
system.cpu.dcache.tags.total_refs           117487128                       # Total number of references to valid blocks.
system.cpu.dcache.tags.sampled_refs          12232231                       # Sample count of references to valid blocks.
system.cpu.dcache.tags.avg_refs              9.604718                       # Average number of references to valid blocks.
system.cpu.dcache.tags.warmup_cycle      18219162243024                       # Cycle when the warmup percentage was hit.
system.cpu.dcache.tags.occ_blocks::.cpu.data     0.000198                       # Average occupied blocks per requestor
system.cpu.dcache.tags.occ_blocks::.switch_cpus.data   511.981977                       # Average occupied blocks per requestor
system.cpu.dcache.tags.occ_percent::.cpu.data     0.000000                       # Average percentage of cache occupancy
system.cpu.dcache.tags.occ_percent::.switch_cpus.data     0.999965                       # Average percentage of cache occupancy
system.cpu.dcache.tags.occ_percent::total     0.999965                       # Average percentage of cache occupancy
system.cpu.dcache.tags.occ_task_id_blocks::1024          512                       # Occupied blocks per task id
system.cpu.dcache.tags.age_task_id_blocks_1024::0          512                       # Occupied blocks per task id
system.cpu.dcache.tags.occ_task_id_percent::1024            1                       # Percentage of cache occupancy per task id
system.cpu.dcache.tags.tag_accesses        1150007655                       # Number of tag accesses
system.cpu.dcache.tags.data_accesses       1150007655                       # Number of data accesses
system.cpu.dcache.tags.power_state.pwrStateResidencyTicks::UNDEFINED 18548613929889                       # Cumulative time (in ticks) in various power states
system.cpu.dtb.rdAccesses                           2                       # TLB accesses on read requests
system.cpu.dtb.wrAccesses                           0                       # TLB accesses on write requests
system.cpu.dtb.rdMisses                             0                       # TLB misses on read requests
system.cpu.dtb.wrMisses                             0                       # TLB misses on write requests
system.cpu.dtb.walker.power_state.pwrStateResidencyTicks::UNDEFINED 18548613929889                       # Cumulative time (in ticks) in various power states
system.cpu.icache.demand_hits::.cpu.inst           18                       # number of demand (read+write) hits
system.cpu.icache.demand_hits::.switch_cpus.inst     45921845                       # number of demand (read+write) hits
system.cpu.icache.demand_hits::total         45921863                       # number of demand (read+write) hits
system.cpu.icache.overall_hits::.cpu.inst           18                       # number of overall hits
system.cpu.icache.overall_hits::.switch_cpus.inst     45921845                       # number of overall hits
system.cpu.icache.overall_hits::total        45921863                       # number of overall hits
system.cpu.icache.demand_misses::.cpu.inst            3                       # number of demand (read+write) misses
system.cpu.icache.demand_misses::.switch_cpus.inst          345                       # number of demand (read+write) misses
system.cpu.icache.demand_misses::total            348                       # number of demand (read+write) misses
system.cpu.icache.overall_misses::.cpu.inst            3                       # number of overall misses
system.cpu.icache.overall_misses::.switch_cpus.inst          345                       # number of overall misses
system.cpu.icache.overall_misses::total           348                       # number of overall misses
system.cpu.icache.demand_miss_latency::.switch_cpus.inst     28922715                       # number of demand (read+write) miss cycles
system.cpu.icache.demand_miss_latency::total     28922715                       # number of demand (read+write) miss cycles
system.cpu.icache.overall_miss_latency::.switch_cpus.inst     28922715                       # number of overall miss cycles
system.cpu.icache.overall_miss_latency::total     28922715                       # number of overall miss cycles
system.cpu.icache.demand_accesses::.cpu.inst           21                       # number of demand (read+write) accesses
system.cpu.icache.demand_accesses::.switch_cpus.inst     45922190                       # number of demand (read+write) accesses
system.cpu.icache.demand_accesses::total     45922211                       # number of demand (read+write) accesses
system.cpu.icache.overall_accesses::.cpu.inst           21                       # number of overall (read+write) accesses
system.cpu.icache.overall_accesses::.switch_cpus.inst     45922190                       # number of overall (read+write) accesses
system.cpu.icache.overall_accesses::total     45922211                       # number of overall (read+write) accesses
system.cpu.icache.demand_miss_rate::.cpu.inst     0.142857                       # miss rate for demand accesses
system.cpu.icache.demand_miss_rate::.switch_cpus.inst     0.000008                       # miss rate for demand accesses
system.cpu.icache.demand_miss_rate::total     0.000008                       # miss rate for demand accesses
system.cpu.icache.overall_miss_rate::.cpu.inst     0.142857                       # miss rate for overall accesses
system.cpu.icache.overall_miss_rate::.switch_cpus.inst     0.000008                       # miss rate for overall accesses
system.cpu.icache.overall_miss_rate::total     0.000008                       # miss rate for overall accesses
system.cpu.icache.demand_avg_miss_latency::.switch_cpus.inst 83833.956522                       # average overall miss latency
system.cpu.icache.demand_avg_miss_latency::total 83111.250000                       # average overall miss latency
system.cpu.icache.overall_avg_miss_latency::.switch_cpus.inst 83833.956522                       # average overall miss latency
system.cpu.icache.overall_avg_miss_latency::total 83111.250000                       # average overall miss latency
system.cpu.icache.blocked_cycles::no_mshrs            0                       # number of cycles access was blocked
system.cpu.icache.blocked_cycles::no_targets            0                       # number of cycles access was blocked
system.cpu.icache.blocked::no_mshrs                 0                       # number of cycles access was blocked
system.cpu.icache.blocked::no_targets               0                       # number of cycles access was blocked
system.cpu.icache.avg_blocked_cycles::no_mshrs          nan                       # average number of cycles each access was blocked
system.cpu.icache.avg_blocked_cycles::no_targets          nan                       # average number of cycles each access was blocked
system.cpu.icache.demand_mshr_hits::.switch_cpus.inst           69                       # number of demand (read+write) MSHR hits
system.cpu.icache.demand_mshr_hits::total           69                       # number of demand (read+write) MSHR hits
system.cpu.icache.overall_mshr_hits::.switch_cpus.inst           69                       # number of overall MSHR hits
system.cpu.icache.overall_mshr_hits::total           69                       # number of overall MSHR hits
system.cpu.icache.demand_mshr_misses::.switch_cpus.inst          276                       # number of demand (read+write) MSHR misses
system.cpu.icache.demand_mshr_misses::total          276                       # number of demand (read+write) MSHR misses
system.cpu.icache.overall_mshr_misses::.switch_cpus.inst          276                       # number of overall MSHR misses
system.cpu.icache.overall_mshr_misses::total          276                       # number of overall MSHR misses
system.cpu.icache.demand_mshr_miss_latency::.switch_cpus.inst     23905404                       # number of demand (read+write) MSHR miss cycles
system.cpu.icache.demand_mshr_miss_latency::total     23905404                       # number of demand (read+write) MSHR miss cycles
system.cpu.icache.overall_mshr_miss_latency::.switch_cpus.inst     23905404                       # number of overall MSHR miss cycles
system.cpu.icache.overall_mshr_miss_latency::total     23905404                       # number of overall MSHR miss cycles
system.cpu.icache.demand_mshr_miss_rate::.switch_cpus.inst     0.000006                       # mshr miss rate for demand accesses
system.cpu.icache.demand_mshr_miss_rate::total     0.000006                       # mshr miss rate for demand accesses
system.cpu.icache.overall_mshr_miss_rate::.switch_cpus.inst     0.000006                       # mshr miss rate for overall accesses
system.cpu.icache.overall_mshr_miss_rate::total     0.000006                       # mshr miss rate for overall accesses
system.cpu.icache.demand_avg_mshr_miss_latency::.switch_cpus.inst 86613.782609                       # average overall mshr miss latency
system.cpu.icache.demand_avg_mshr_miss_latency::total 86613.782609                       # average overall mshr miss latency
system.cpu.icache.overall_avg_mshr_miss_latency::.switch_cpus.inst 86613.782609                       # average overall mshr miss latency
system.cpu.icache.overall_avg_mshr_miss_latency::total 86613.782609                       # average overall mshr miss latency
system.cpu.icache.replacements                      0                       # number of replacements
system.cpu.icache.ReadReq_hits::.cpu.inst           18                       # number of ReadReq hits
system.cpu.icache.ReadReq_hits::.switch_cpus.inst     45921845                       # number of ReadReq hits
system.cpu.icache.ReadReq_hits::total        45921863                       # number of ReadReq hits
system.cpu.icache.ReadReq_misses::.cpu.inst            3                       # number of ReadReq misses
system.cpu.icache.ReadReq_misses::.switch_cpus.inst          345                       # number of ReadReq misses
system.cpu.icache.ReadReq_misses::total           348                       # number of ReadReq misses
system.cpu.icache.ReadReq_miss_latency::.switch_cpus.inst     28922715                       # number of ReadReq miss cycles
system.cpu.icache.ReadReq_miss_latency::total     28922715                       # number of ReadReq miss cycles
system.cpu.icache.ReadReq_accesses::.cpu.inst           21                       # number of ReadReq accesses(hits+misses)
system.cpu.icache.ReadReq_accesses::.switch_cpus.inst     45922190                       # number of ReadReq accesses(hits+misses)
system.cpu.icache.ReadReq_accesses::total     45922211                       # number of ReadReq accesses(hits+misses)
system.cpu.icache.ReadReq_miss_rate::.cpu.inst     0.142857                       # miss rate for ReadReq accesses
system.cpu.icache.ReadReq_miss_rate::.switch_cpus.inst     0.000008                       # miss rate for ReadReq accesses
system.cpu.icache.ReadReq_miss_rate::total     0.000008                       # miss rate for ReadReq accesses
system.cpu.icache.ReadReq_avg_miss_latency::.switch_cpus.inst 83833.956522                       # average ReadReq miss latency
system.cpu.icache.ReadReq_avg_miss_latency::total 83111.250000                       # average ReadReq miss latency
system.cpu.icache.ReadReq_mshr_hits::.switch_cpus.inst           69                       # number of ReadReq MSHR hits
system.cpu.icache.ReadReq_mshr_hits::total           69                       # number of ReadReq MSHR hits
system.cpu.icache.ReadReq_mshr_misses::.switch_cpus.inst          276                       # number of ReadReq MSHR misses
system.cpu.icache.ReadReq_mshr_misses::total          276                       # number of ReadReq MSHR misses
system.cpu.icache.ReadReq_mshr_miss_latency::.switch_cpus.inst     23905404                       # number of ReadReq MSHR miss cycles
system.cpu.icache.ReadReq_mshr_miss_latency::total     23905404                       # number of ReadReq MSHR miss cycles
system.cpu.icache.ReadReq_mshr_miss_rate::.switch_cpus.inst     0.000006                       # mshr miss rate for ReadReq accesses
system.cpu.icache.ReadReq_mshr_miss_rate::total     0.000006                       # mshr miss rate for ReadReq accesses
system.cpu.icache.ReadReq_avg_mshr_miss_latency::.switch_cpus.inst 86613.782609                       # average ReadReq mshr miss latency
system.cpu.icache.ReadReq_avg_mshr_miss_latency::total 86613.782609                       # average ReadReq mshr miss latency
system.cpu.icache.power_state.pwrStateResidencyTicks::UNDEFINED 18548613929889                       # Cumulative time (in ticks) in various power states
system.cpu.icache.tags.tagsinuse           117.172204                       # Cycle average of tags in use
system.cpu.icache.tags.total_refs            45922142                       # Total number of references to valid blocks.
system.cpu.icache.tags.sampled_refs               279                       # Sample count of references to valid blocks.
system.cpu.icache.tags.avg_refs          164595.491039                       # Average number of references to valid blocks.
system.cpu.icache.tags.warmup_cycle      18219162241359                       # Cycle when the warmup percentage was hit.
system.cpu.icache.tags.occ_blocks::.cpu.inst     3.000000                       # Average occupied blocks per requestor
system.cpu.icache.tags.occ_blocks::.switch_cpus.inst   114.172204                       # Average occupied blocks per requestor
system.cpu.icache.tags.occ_percent::.cpu.inst     0.005859                       # Average percentage of cache occupancy
system.cpu.icache.tags.occ_percent::.switch_cpus.inst     0.222993                       # Average percentage of cache occupancy
system.cpu.icache.tags.occ_percent::total     0.228852                       # Average percentage of cache occupancy
system.cpu.icache.tags.occ_task_id_blocks::1024          278                       # Occupied blocks per task id
system.cpu.icache.tags.age_task_id_blocks_1024::3           75                       # Occupied blocks per task id
system.cpu.icache.tags.age_task_id_blocks_1024::4          203                       # Occupied blocks per task id
system.cpu.icache.tags.occ_task_id_percent::1024     0.542969                       # Percentage of cache occupancy per task id
system.cpu.icache.tags.tag_accesses         367377967                       # Number of tag accesses
system.cpu.icache.tags.data_accesses        367377967                       # Number of data accesses
system.cpu.icache.tags.power_state.pwrStateResidencyTicks::UNDEFINED 18548613929889                       # Cumulative time (in ticks) in various power states
system.cpu.interrupts.clk_domain.clock           5328                       # Clock period in ticks
system.cpu.itb.rdAccesses                           0                       # TLB accesses on read requests
system.cpu.itb.wrAccesses                          21                       # TLB accesses on write requests
system.cpu.itb.rdMisses                             0                       # TLB misses on read requests
system.cpu.itb.wrMisses                             0                       # TLB misses on write requests
system.cpu.itb.walker.power_state.pwrStateResidencyTicks::UNDEFINED 18548613929889                       # Cumulative time (in ticks) in various power states
system.cpu.l2bus.trans_dist::ReadResp         9576980                       # Transaction distribution
system.cpu.l2bus.trans_dist::WritebackDirty      6181267                       # Transaction distribution
system.cpu.l2bus.trans_dist::WritebackClean     15755501                       # Transaction distribution
system.cpu.l2bus.trans_dist::UpgradeReq          2582                       # Transaction distribution
system.cpu.l2bus.trans_dist::UpgradeResp         2582                       # Transaction distribution
system.cpu.l2bus.trans_dist::ReadExReq        2655530                       # Transaction distribution
system.cpu.l2bus.trans_dist::ReadExResp       2655530                       # Transaction distribution
system.cpu.l2bus.trans_dist::ReadSharedReq      9576980                       # Transaction distribution
system.cpu.l2bus.pkt_count_system.cpu.icache.mem_side_port::system.cpu.l2cache.cpu_side_port          557                       # Packet count per connected requestor and responder (bytes)
system.cpu.l2bus.pkt_count_system.cpu.dcache.mem_side_port::system.cpu.l2cache.cpu_side_port     36701345                       # Packet count per connected requestor and responder (bytes)
system.cpu.l2bus.pkt_count::total            36701902                       # Packet count per connected requestor and responder (bytes)
system.cpu.l2bus.pkt_size_system.cpu.icache.mem_side_port::system.cpu.l2cache.cpu_side_port        17792                       # Cumulative packet size per connected requestor and responder (bytes)
system.cpu.l2bus.pkt_size_system.cpu.dcache.mem_side_port::system.cpu.l2cache.cpu_side_port   1565692800                       # Cumulative packet size per connected requestor and responder (bytes)
system.cpu.l2bus.pkt_size::total           1565710592                       # Cumulative packet size per connected requestor and responder (bytes)
system.cpu.l2bus.snoops                       9705050                       # Total snoops (count)
system.cpu.l2bus.snoopTraffic               621123200                       # Total snoop traffic (bytes)
system.cpu.l2bus.snoop_fanout::samples       21940141                       # Request fanout histogram
system.cpu.l2bus.snoop_fanout::mean          0.000016                       # Request fanout histogram
system.cpu.l2bus.snoop_fanout::stdev         0.003988                       # Request fanout histogram
system.cpu.l2bus.snoop_fanout::underflows            0      0.00%      0.00% # Request fanout histogram
system.cpu.l2bus.snoop_fanout::0             21939792    100.00%    100.00% # Request fanout histogram
system.cpu.l2bus.snoop_fanout::1                  349      0.00%    100.00% # Request fanout histogram
system.cpu.l2bus.snoop_fanout::2                    0      0.00%    100.00% # Request fanout histogram
system.cpu.l2bus.snoop_fanout::3                    0      0.00%    100.00% # Request fanout histogram
system.cpu.l2bus.snoop_fanout::overflows            0      0.00%    100.00% # Request fanout histogram
system.cpu.l2bus.snoop_fanout::min_value            0                       # Request fanout histogram
system.cpu.l2bus.snoop_fanout::max_value            1                       # Request fanout histogram
system.cpu.l2bus.snoop_fanout::total         21940141                       # Request fanout histogram
system.cpu.l2bus.power_state.pwrStateResidencyTicks::UNDEFINED 18548613929889                       # Cumulative time (in ticks) in various power states
system.cpu.l2bus.reqLayer0.occupancy      16293772978                       # Layer occupancy (ticks)
system.cpu.l2bus.reqLayer0.utilization            4.9                       # Layer utilization (%)
system.cpu.l2bus.respLayer0.occupancy          275724                       # Layer occupancy (ticks)
system.cpu.l2bus.respLayer0.utilization           0.0                       # Layer utilization (%)
system.cpu.l2bus.respLayer1.occupancy     12220856577                       # Layer occupancy (ticks)
system.cpu.l2bus.respLayer1.utilization           3.7                       # Layer utilization (%)
system.cpu.l2cache.demand_hits::.switch_cpus.data      2523397                       # number of demand (read+write) hits
system.cpu.l2cache.demand_hits::total         2523397                       # number of demand (read+write) hits
system.cpu.l2cache.overall_hits::.switch_cpus.data      2523397                       # number of overall hits
system.cpu.l2cache.overall_hits::total        2523397                       # number of overall hits
system.cpu.l2cache.demand_misses::.cpu.inst            3                       # number of demand (read+write) misses
system.cpu.l2cache.demand_misses::.cpu.data            2                       # number of demand (read+write) misses
system.cpu.l2cache.demand_misses::.switch_cpus.inst          275                       # number of demand (read+write) misses
system.cpu.l2cache.demand_misses::.switch_cpus.data      9708832                       # number of demand (read+write) misses
system.cpu.l2cache.demand_misses::total       9709112                       # number of demand (read+write) misses
system.cpu.l2cache.overall_misses::.cpu.inst            3                       # number of overall misses
system.cpu.l2cache.overall_misses::.cpu.data            2                       # number of overall misses
system.cpu.l2cache.overall_misses::.switch_cpus.inst          275                       # number of overall misses
system.cpu.l2cache.overall_misses::.switch_cpus.data      9708832                       # number of overall misses
system.cpu.l2cache.overall_misses::total      9709112                       # number of overall misses
system.cpu.l2cache.demand_miss_latency::.switch_cpus.inst     23716593                       # number of demand (read+write) miss cycles
system.cpu.l2cache.demand_miss_latency::.switch_cpus.data 779305577067                       # number of demand (read+write) miss cycles
system.cpu.l2cache.demand_miss_latency::total 779329293660                       # number of demand (read+write) miss cycles
system.cpu.l2cache.overall_miss_latency::.switch_cpus.inst     23716593                       # number of overall miss cycles
system.cpu.l2cache.overall_miss_latency::.switch_cpus.data 779305577067                       # number of overall miss cycles
system.cpu.l2cache.overall_miss_latency::total 779329293660                       # number of overall miss cycles
system.cpu.l2cache.demand_accesses::.cpu.inst            3                       # number of demand (read+write) accesses
system.cpu.l2cache.demand_accesses::.cpu.data            2                       # number of demand (read+write) accesses
system.cpu.l2cache.demand_accesses::.switch_cpus.inst          275                       # number of demand (read+write) accesses
system.cpu.l2cache.demand_accesses::.switch_cpus.data     12232229                       # number of demand (read+write) accesses
system.cpu.l2cache.demand_accesses::total     12232509                       # number of demand (read+write) accesses
system.cpu.l2cache.overall_accesses::.cpu.inst            3                       # number of overall (read+write) accesses
system.cpu.l2cache.overall_accesses::.cpu.data            2                       # number of overall (read+write) accesses
system.cpu.l2cache.overall_accesses::.switch_cpus.inst          275                       # number of overall (read+write) accesses
system.cpu.l2cache.overall_accesses::.switch_cpus.data     12232229                       # number of overall (read+write) accesses
system.cpu.l2cache.overall_accesses::total     12232509                       # number of overall (read+write) accesses
system.cpu.l2cache.demand_miss_rate::.cpu.inst            1                       # miss rate for demand accesses
system.cpu.l2cache.demand_miss_rate::.cpu.data            1                       # miss rate for demand accesses
system.cpu.l2cache.demand_miss_rate::.switch_cpus.inst            1                       # miss rate for demand accesses
system.cpu.l2cache.demand_miss_rate::.switch_cpus.data     0.793709                       # miss rate for demand accesses
system.cpu.l2cache.demand_miss_rate::total     0.793714                       # miss rate for demand accesses
system.cpu.l2cache.overall_miss_rate::.cpu.inst            1                       # miss rate for overall accesses
system.cpu.l2cache.overall_miss_rate::.cpu.data            1                       # miss rate for overall accesses
system.cpu.l2cache.overall_miss_rate::.switch_cpus.inst            1                       # miss rate for overall accesses
system.cpu.l2cache.overall_miss_rate::.switch_cpus.data     0.793709                       # miss rate for overall accesses
system.cpu.l2cache.overall_miss_rate::total     0.793714                       # miss rate for overall accesses
system.cpu.l2cache.demand_avg_miss_latency::.switch_cpus.inst 86242.156364                       # average overall miss latency
system.cpu.l2cache.demand_avg_miss_latency::.switch_cpus.data 80267.696162                       # average overall miss latency
system.cpu.l2cache.demand_avg_miss_latency::total 80267.824046                       # average overall miss latency
system.cpu.l2cache.overall_avg_miss_latency::.switch_cpus.inst 86242.156364                       # average overall miss latency
system.cpu.l2cache.overall_avg_miss_latency::.switch_cpus.data 80267.696162                       # average overall miss latency
system.cpu.l2cache.overall_avg_miss_latency::total 80267.824046                       # average overall miss latency
system.cpu.l2cache.blocked_cycles::no_mshrs            0                       # number of cycles access was blocked
system.cpu.l2cache.blocked_cycles::no_targets            0                       # number of cycles access was blocked
system.cpu.l2cache.blocked::no_mshrs                0                       # number of cycles access was blocked
system.cpu.l2cache.blocked::no_targets              0                       # number of cycles access was blocked
system.cpu.l2cache.avg_blocked_cycles::no_mshrs          nan                       # average number of cycles each access was blocked
system.cpu.l2cache.avg_blocked_cycles::no_targets          nan                       # average number of cycles each access was blocked
system.cpu.l2cache.writebacks::.writebacks      9705048                       # number of writebacks
system.cpu.l2cache.writebacks::total          9705048                       # number of writebacks
system.cpu.l2cache.demand_mshr_misses::.switch_cpus.inst          275                       # number of demand (read+write) MSHR misses
system.cpu.l2cache.demand_mshr_misses::.switch_cpus.data      9708832                       # number of demand (read+write) MSHR misses
system.cpu.l2cache.demand_mshr_misses::total      9709107                       # number of demand (read+write) MSHR misses
system.cpu.l2cache.overall_mshr_misses::.switch_cpus.inst          275                       # number of overall MSHR misses
system.cpu.l2cache.overall_mshr_misses::.switch_cpus.data      9708832                       # number of overall MSHR misses
system.cpu.l2cache.overall_mshr_misses::total      9709107                       # number of overall MSHR misses
system.cpu.l2cache.demand_mshr_miss_latency::.switch_cpus.inst     23625018                       # number of demand (read+write) MSHR miss cycles
system.cpu.l2cache.demand_mshr_miss_latency::.switch_cpus.data 776072536011                       # number of demand (read+write) MSHR miss cycles
system.cpu.l2cache.demand_mshr_miss_latency::total 776096161029                       # number of demand (read+write) MSHR miss cycles
system.cpu.l2cache.overall_mshr_miss_latency::.switch_cpus.inst     23625018                       # number of overall MSHR miss cycles
system.cpu.l2cache.overall_mshr_miss_latency::.switch_cpus.data 776072536011                       # number of overall MSHR miss cycles
system.cpu.l2cache.overall_mshr_miss_latency::total 776096161029                       # number of overall MSHR miss cycles
[...]
system.switch_cpus.commit.numCommittedDist::0    865535651     89.12%     89.12% # Number of insts commited each cycle
system.switch_cpus.commit.numCommittedDist::1     37047905      3.81%     92.94% # Number of insts commited each cycle
system.switch_cpus.commit.numCommittedDist::2      4999237      0.51%     93.45% # Number of insts commited each cycle
system.switch_cpus.commit.numCommittedDist::3      8975659      0.92%     94.38% # Number of insts commited each cycle
system.switch_cpus.commit.numCommittedDist::4     10591248      1.09%     95.47% # Number of insts commited each cycle
system.switch_cpus.commit.numCommittedDist::5      3222651      0.33%     95.80% # Number of insts commited each cycle
system.switch_cpus.commit.numCommittedDist::6      3871784      0.40%     96.20% # Number of insts commited each cycle
system.switch_cpus.commit.numCommittedDist::7      3952326      0.41%     96.61% # Number of insts commited each cycle
system.switch_cpus.commit.numCommittedDist::8     32955484      3.39%    100.00% # Number of insts commited each cycle
system.switch_cpus.commit.numCommittedDist::overflows            0      0.00%    100.00% # Number of insts commited each cycle
system.switch_cpus.commit.numCommittedDist::min_value            0                       # Number of insts commited each cycle
system.switch_cpus.commit.numCommittedDist::max_value            8                       # Number of insts commited each cycle
system.switch_cpus.commit.numCommittedDist::total    971151945                       # Number of insts commited each cycle
system.switch_cpus.commit.instsCommitted    250000000                       # Number of instructions committed
system.switch_cpus.commit.opsCommitted      446992461                       # Number of ops (including micro ops) committed
system.switch_cpus.commit.memRefs           107949233                       # Number of memory references committed
system.switch_cpus.commit.loads              80236818                       # Number of loads committed
system.switch_cpus.commit.amos                      0                       # Number of atomic instructions committed
system.switch_cpus.commit.membars                 100                       # Number of memory barriers committed
system.switch_cpus.commit.branches           23624370                       # Number of branches committed
system.switch_cpus.commit.vector                    0                       # Number of committed Vector instructions.
system.switch_cpus.commit.floating          287099958                       # Number of committed floating point instructions.
system.switch_cpus.commit.integer           242688571                       # Number of committed integer instructions.
system.switch_cpus.commit.functionCalls        836070                       # Number of function calls committed.
system.switch_cpus.commit.committedInstType_0::No_OpClass       267809      0.06%      0.06% # Class of committed instruction
system.switch_cpus.commit.committedInstType_0::IntAlu    187368582     41.92%     41.98% # Class of committed instruction
system.switch_cpus.commit.committedInstType_0::IntMult            0      0.00%     41.98% # Class of committed instruction
system.switch_cpus.commit.committedInstType_0::IntDiv            0      0.00%     41.98% # Class of committed instruction
system.switch_cpus.commit.committedInstType_0::FloatAdd     72687810     16.26%     58.24% # Class of committed instruction
system.switch_cpus.commit.committedInstType_0::FloatCmp            0      0.00%     58.24% # Class of committed instruction
system.switch_cpus.commit.committedInstType_0::FloatCvt            0      0.00%     58.24% # Class of committed instruction
system.switch_cpus.commit.committedInstType_0::FloatMult            0      0.00%     58.24% # Class of committed instruction
system.switch_cpus.commit.committedInstType_0::FloatMultAcc            0      0.00%     58.24% # Class of committed instruction
system.switch_cpus.commit.committedInstType_0::FloatDiv            0      0.00%     58.24% # Class of committed instruction
system.switch_cpus.commit.committedInstType_0::FloatMisc            0      0.00%     58.24% # Class of committed instruction
system.switch_cpus.commit.committedInstType_0::FloatSqrt            0      0.00%     58.24% # Class of committed instruction
system.switch_cpus.commit.committedInstType_0::SimdAdd            0      0.00%     58.24% # Class of committed instruction
system.switch_cpus.commit.committedInstType_0::SimdAddAcc            0      0.00%     58.24% # Class of committed instruction
system.switch_cpus.commit.committedInstType_0::SimdAlu        53360      0.01%     58.25% # Class of committed instruction
system.switch_cpus.commit.committedInstType_0::SimdCmp            0      0.00%     58.25% # Class of committed instruction
system.switch_cpus.commit.committedInstType_0::SimdCvt            0      0.00%     58.25% # Class of committed instruction
system.switch_cpus.commit.committedInstType_0::SimdMisc            0      0.00%     58.25% # Class of committed instruction
system.switch_cpus.commit.committedInstType_0::SimdMult            0      0.00%     58.25% # Class of committed instruction
system.switch_cpus.commit.committedInstType_0::SimdMultAcc            0      0.00%     58.25% # Class of committed instruction
system.switch_cpus.commit.committedInstType_0::SimdShift            0      0.00%     58.25% # Class of committed instruction
system.switch_cpus.commit.committedInstType_0::SimdShiftAcc            0      0.00%     58.25% # Class of committed instruction
system.switch_cpus.commit.committedInstType_0::SimdDiv            0      0.00%     58.25% # Class of committed instruction
system.switch_cpus.commit.committedInstType_0::SimdSqrt            0      0.00%     58.25% # Class of committed instruction
system.switch_cpus.commit.committedInstType_0::SimdFloatAdd     28564339      6.39%     64.64% # Class of committed instruction
system.switch_cpus.commit.committedInstType_0::SimdFloatAlu            0      0.00%     64.64% # Class of committed instruction
system.switch_cpus.commit.committedInstType_0::SimdFloatCmp     29489018      6.60%     71.24% # Class of committed instruction
system.switch_cpus.commit.committedInstType_0::SimdFloatCvt      5675782      1.27%     72.51% # Class of committed instruction
system.switch_cpus.commit.committedInstType_0::SimdFloatDiv            0      0.00%     72.51% # Class of committed instruction
system.switch_cpus.commit.committedInstType_0::SimdFloatMisc            0      0.00%     72.51% # Class of committed instruction
system.switch_cpus.commit.committedInstType_0::SimdFloatMult     14936528      3.34%     75.85% # Class of committed instruction
system.switch_cpus.commit.committedInstType_0::SimdFloatMultAcc            0      0.00%     75.85% # Class of committed instruction
system.switch_cpus.commit.committedInstType_0::SimdFloatSqrt            0      0.00%     75.85% # Class of committed instruction
system.switch_cpus.commit.committedInstType_0::SimdReduceAdd            0      0.00%     75.85% # Class of committed instruction
system.switch_cpus.commit.committedInstType_0::SimdReduceAlu            0      0.00%     75.85% # Class of committed instruction
system.switch_cpus.commit.committedInstType_0::SimdReduceCmp            0      0.00%     75.85% # Class of committed instruction
system.switch_cpus.commit.committedInstType_0::SimdFloatReduceAdd            0      0.00%     75.85% # Class of committed instruction
system.switch_cpus.commit.committedInstType_0::SimdFloatReduceCmp            0      0.00%     75.85% # Class of committed instruction
system.switch_cpus.commit.committedInstType_0::SimdAes            0      0.00%     75.85% # Class of committed instruction
system.switch_cpus.commit.committedInstType_0::SimdAesMix            0      0.00%     75.85% # Class of committed instruction
system.switch_cpus.commit.committedInstType_0::SimdSha1Hash            0      0.00%     75.85% # Class of committed instruction
system.switch_cpus.commit.committedInstType_0::SimdSha1Hash2            0      0.00%     75.85% # Class of committed instruction
system.switch_cpus.commit.committedInstType_0::SimdSha256Hash            0      0.00%     75.85% # Class of committed instruction
system.switch_cpus.commit.committedInstType_0::SimdSha256Hash2            0      0.00%     75.85% # Class of committed instruction
system.switch_cpus.commit.committedInstType_0::SimdShaSigma2            0      0.00%     75.85% # Class of committed instruction
system.switch_cpus.commit.committedInstType_0::SimdShaSigma3            0      0.00%     75.85% # Class of committed instruction
system.switch_cpus.commit.committedInstType_0::SimdPredAlu            0      0.00%     75.85% # Class of committed instruction
system.switch_cpus.commit.committedInstType_0::MemRead     16946956      3.79%     79.64% # Class of committed instruction
system.switch_cpus.commit.committedInstType_0::MemWrite      7929920      1.77%     81.42% # Class of committed instruction
system.switch_cpus.commit.committedInstType_0::FloatMemRead     63289862     14.16%     95.57% # Class of committed instruction
system.switch_cpus.commit.committedInstType_0::FloatMemWrite     19782495      4.43%    100.00% # Class of committed instruction
system.switch_cpus.commit.committedInstType_0::IprAccess            0      0.00%    100.00% # Class of committed instruction
system.switch_cpus.commit.committedInstType_0::InstPrefetch            0      0.00%    100.00% # Class of committed instruction
system.switch_cpus.commit.committedInstType_0::total    446992461                       # Class of committed instruction
system.switch_cpus.commit.commitEligibleSamples     32955484                       # number cycles where commit BW limit reached
system.switch_cpus.decode.idleCycles         15008271                       # Number of cycles decode is idle
system.switch_cpus.decode.blockedCycles     890572254                       # Number of cycles decode is blocked
system.switch_cpus.decode.runCycles          53228446                       # Number of cycles decode is running
system.switch_cpus.decode.unblockCycles      28826931                       # Number of cycles decode is unblocking
system.switch_cpus.decode.squashCycles        1680779                       # Number of cycles decode is squashing
system.switch_cpus.decode.branchResolved     17558220                       # Number of times decode resolved a  branch
system.switch_cpus.decode.branchMispred           390                       # Number of times decode detected a branch misprediction
system.switch_cpus.decode.decodedInsts      623209647                       # Number of instructions handled by decode
system.switch_cpus.decode.squashedInsts          2402                       # Number of squashed instructions handled by decode
system.switch_cpus.dtb.rdAccesses           124131053                       # TLB accesses on read requests
system.switch_cpus.dtb.wrAccesses            65019856                       # TLB accesses on write requests
system.switch_cpus.dtb.rdMisses               2728205                       # TLB misses on read requests
system.switch_cpus.dtb.wrMisses                329627                       # TLB misses on write requests
system.switch_cpus.dtb.walker.power_state.pwrStateResidencyTicks::UNDEFINED 18548613929889                       # Cumulative time (in ticks) in various power states
system.switch_cpus.fetch.icacheStallCycles       829019                       # Number of cycles fetch is stalled on an Icache miss
system.switch_cpus.fetch.insts              357636735                       # Number of instructions fetch has processed
system.switch_cpus.fetch.branches            36384248                       # Number of branches that fetch encountered
system.switch_cpus.fetch.predictedBranches     21524153                       # Number of branches that fetch has predicted taken
system.switch_cpus.fetch.cycles             986804314                       # Number of cycles fetch has run and was not squashing or blocked
system.switch_cpus.fetch.squashCycles         3362302                       # Number of cycles fetch has spent squashing
system.switch_cpus.fetch.miscStallCycles          106                       # Number of cycles fetch has spent waiting on interrupts,or bad addresses, or out of MSHRs
system.switch_cpus.fetch.pendingTrapStallCycles         2106                       # Number of stall cycles due to pending traps
system.switch_cpus.fetch.cacheLines          45922190                       # Number of cache lines fetched
system.switch_cpus.fetch.icacheSquashes           182                       # Number of outstanding Icache misses that were squashed
system.switch_cpus.fetch.nisnDist::samples    989316696                       # Number of instructions fetched each cycle (Total)
system.switch_cpus.fetch.nisnDist::mean      0.691431                       # Number of instructions fetched each cycle (Total)
system.switch_cpus.fetch.nisnDist::stdev     2.087714                       # Number of instructions fetched each cycle (Total)
system.switch_cpus.fetch.nisnDist::underflows            0      0.00%      0.00% # Number of instructions fetched each cycle (Total)
system.switch_cpus.fetch.nisnDist::0        875773989     88.52%     88.52% # Number of instructions fetched each cycle (Total)
system.switch_cpus.fetch.nisnDist::1          4765745      0.48%     89.00% # Number of instructions fetched each cycle (Total)
system.switch_cpus.fetch.nisnDist::2         12716080      1.29%     90.29% # Number of instructions fetched each cycle (Total)
system.switch_cpus.fetch.nisnDist::3          7441232      0.75%     91.04% # Number of instructions fetched each cycle (Total)
system.switch_cpus.fetch.nisnDist::4          6524597      0.66%     91.70% # Number of instructions fetched each cycle (Total)
system.switch_cpus.fetch.nisnDist::5         10208603      1.03%     92.73% # Number of instructions fetched each cycle (Total)
system.switch_cpus.fetch.nisnDist::6          6330519      0.64%     93.37% # Number of instructions fetched each cycle (Total)
system.switch_cpus.fetch.nisnDist::7          8048879      0.81%     94.19% # Number of instructions fetched each cycle (Total)
system.switch_cpus.fetch.nisnDist::8         57507052      5.81%    100.00% # Number of instructions fetched each cycle (Total)
system.switch_cpus.fetch.nisnDist::overflows            0      0.00%    100.00% # Number of instructions fetched each cycle (Total)
system.switch_cpus.fetch.nisnDist::min_value            0                       # Number of instructions fetched each cycle (Total)
system.switch_cpus.fetch.nisnDist::max_value            8                       # Number of instructions fetched each cycle (Total)
system.switch_cpus.fetch.nisnDist::total    989316696                       # Number of instructions fetched each cycle (Total)
system.switch_cpus.fetch.branchRate          0.036776                       # Number of branch fetches per cycle
system.switch_cpus.fetch.rate                0.361489                       # Number of inst fetches per cycle
system.switch_cpus.itb.rdAccesses                   0                       # TLB accesses on read requests
system.switch_cpus.itb.wrAccesses            45922376                       # TLB accesses on write requests
system.switch_cpus.itb.rdMisses                     0                       # TLB misses on read requests
system.switch_cpus.itb.wrMisses                   215                       # TLB misses on write requests
system.switch_cpus.itb.walker.power_state.pwrStateResidencyTicks::UNDEFINED 18548613929889                       # Cumulative time (in ticks) in various power states
system.switch_cpus.lsq0.forwLoads             1070580                       # Number of loads that had data forwarded from stores
system.switch_cpus.lsq0.squashedLoads        35628972                       # Number of loads squashed
system.switch_cpus.lsq0.ignoredResponses         1353                       # Number of memory responses ignored because the instruction is squashed
system.switch_cpus.lsq0.memOrderViolation         7357                       # Number of memory ordering violations
system.switch_cpus.lsq0.squashedStores       38785941                       # Number of stores squashed
system.switch_cpus.lsq0.rescheduledLoads      7740072                       # Number of loads that were rescheduled
system.switch_cpus.lsq0.blockedByCache           3432                       # Number of times an access to memory failed due to the cache being blocked
system.switch_cpus.power_state.pwrStateResidencyTicks::OFF 329451688863                       # Cumulative time (in ticks) in various power states
system.switch_cpus.rename.squashCycles        1680779                       # Number of cycles rename is squashing
system.switch_cpus.rename.idleCycles         26322916                       # Number of cycles rename is idle
system.switch_cpus.rename.blockCycles       518042039                       # Number of cycles rename is blocking
system.switch_cpus.rename.serializeStallCycles            0                       # count of cycles rename stalledfor serializing inst
system.switch_cpus.rename.runCycles          68959759                       # Number of cycles rename is running
system.switch_cpus.rename.unblockCycles     374311188                       # Number of cycles rename is unblocking
system.switch_cpus.rename.renamedInsts      609240380                       # Number of instructions processed by rename
system.switch_cpus.rename.ROBFullEvents       6612363                       # Number of times rename has blocked due to ROB full
system.switch_cpus.rename.IQFullEvents       88688835                       # Number of times rename has blocked due to IQ full
system.switch_cpus.rename.LQFullEvents      171261189                       # Number of times rename has blocked due to LQ full
system.switch_cpus.rename.SQFullEvents      167655849                       # Number of times rename has blocked due to SQ full
system.switch_cpus.rename.renamedOperands    621409855                       # Number of destination operands rename has renamed
system.switch_cpus.rename.lookups          1455254629                       # Number of register rename lookups that rename has made
system.switch_cpus.rename.intLookups        603723612                       # Number of integer rename lookups
system.switch_cpus.rename.fpLookups         384876172                       # Number of floating rename lookups
system.switch_cpus.rename.committedMaps     472517898                       # Number of HB maps that are committed
system.switch_cpus.rename.undoneMaps        148891857                       # Number of HB maps that are undone due to squashing
system.switch_cpus.rename.serializing               0                       # count of serializing insts renamed
system.switch_cpus.rename.tempSerializing            0                       # count of temporary serializing insts renamed
system.switch_cpus.rename.skidInsts         160457967                       # count of insts added to the skid buffer
system.switch_cpus.rob.reads               1503687784                       # The number of ROB reads
system.switch_cpus.rob.writes              1177173132                       # The number of ROB writes
system.switch_cpus.thread0.numInsts         250000000                       # Number of Instructions committed
system.switch_cpus.thread0.numOps           446992461                       # Number of Ops committed
system.switch_cpus.thread0.numMemRefs               0                       # Number of Memory References
system.voltage_domain.voltage                       1                       # Voltage in Volts

---------- End Simulation Statistics   ----------
