Command line:
./runscript_pride.sh mix1 RFM2.BR1.4C 4 2017 --rh_defense --rh_mitigation=RFM --rh_rfm_per_trefi=2 --rh_rfm_blast_radius=1 --rh_rfm_maxacts_per_trefi=79
Global frequency set at 1000000000000 ticks per second
RFM details - rfm_act_threshold: 39, blast_radius: 1, delay_per_rfm: 175000 ps. sample_rate: 0.025000
RH Defense config: RFM, Bus Delay: 0, rfms_per_trefi: 2, rfm_act_threshold: 39, blast_radius: 1,rfm_delay_per_act: 45000 ps.
DRAM config: RowsPerBank: 65536, BanksPerRank: 32, RanksPerChannel: 1
warn: Sockets disabled, not accepting gdb connections
warn: CoherentXBar system.cpu0.mmucache.mmubus has no snooping ports attached!
warn: CoherentXBar system.cpu1.mmucache.mmubus has no snooping ports attached!
warn: CoherentXBar system.cpu2.mmucache.mmubus has no snooping ports attached!
warn: CoherentXBar system.cpu3.mmucache.mmubus has no snooping ports attached!
warn: Checkpoints for file descriptors currently do not work.
warn: Checkpoints for file descriptors currently do not work.
warn: Checkpoints for file descriptors currently do not work.
warn: Checkpoints for file descriptors currently do not work.
gem5 Simulator System.  http://gem5.org
gem5 is copyrighted software; use the --copyright option for details.

gem5 version 20.1.0.5
gem5 compiled Jul 12 2024 12:42:38
gem5 started Jul 17 2024 15:37:01
gem5 executing on a07dda8b130c, pid 90714
command line: /home/user/PrIDE/performance/gem5/build/X86/gem5.opt --outdir=/home/user/PrIDE/performance/gem5/stats/pride_multiprogram_16GBmem_250Mn.SPEC2017.C4/RFM2.BR1.4C/mix1 /home/user/PrIDE/performance/gem5/configs/example/se_rq_spec_config_multicore.py --redirects /lib64=/home/utils/gcc-6.2.0/lib64 --benchmark=mix1 --benchmark_stdout=/home/user/PrIDE/performance/gem5/stats/pride_multiprogram_16GBmem_250Mn.SPEC2017.C4/RFM2.BR1.4C/mix1/mix1.out --benchmark_stderr=/home/user/PrIDE/performance/gem5/stats/pride_multiprogram_16GBmem_250Mn.SPEC2017.C4/RFM2.BR1.4C/mix1/mix1.err --spec-version=2017 --rh_defense --rh_mitigation=RFM --rh_rfm_per_trefi=2 --rh_rfm_blast_radius=1 --rh_rfm_maxacts_per_trefi=79 --num-cpus=4 --mem-size=16GB --mem-type=DDR5_2400_32x4 --mem-ranks=1 --checkpoint-dir=/home/user/PrIDE/performance/gem5/cpts/multiprogram_16GBmem_25Bn.SPEC2017.C4/mix1-1-ref-x86 --checkpoint-restore=25000000000 --at-instruction --cpu-type DerivO3CPU --caches --l2cache --l1d_size=32kB --l1i_size=32kB --l2_size=256kB --l1d_assoc=8 --l1i_assoc=8 --l2_assoc=16 --maxinsts=250000000 --prog-interval=300Hz

info: Standard input is not a terminal, disabling listeners.
Benchmark- 0   leela
Selected benchmark
--> leela
CMD: ['/opt/spec2017/benchspec/CPU/541.leela_r/run/run_base_refrate_gem5_se-m64.0000/leela_r_base.gem5_se-m64', '/opt/spec2017/benchspec/CPU/541.leela_r/run/run_base_refrate_gem5_se-m64.0000/ref.sgf']
CWD: /opt/spec2017/benchspec/CPU/541.leela_r/run/run_base_refrate_gem5_se-m64.0000/
Process stdout file: /home/user/PrIDE/performance/gem5/stats/pride_multiprogram_16GBmem_250Mn.SPEC2017.C4/RFM2.BR1.4C/mix1/mix1.out_0
Process stderr file: /home/user/PrIDE/performance/gem5/stats/pride_multiprogram_16GBmem_250Mn.SPEC2017.C4/RFM2.BR1.4C/mix1/mix1.err_0
Benchmark- 1   exchange2
Selected benchmark
--> exchange2
CMD: ['/opt/spec2017/benchspec/CPU/548.exchange2_r/run/run_base_refrate_gem5_se-m64.0000/exchange2_r_base.gem5_se-m64', '6']
CWD: /opt/spec2017/benchspec/CPU/548.exchange2_r/run/run_base_refrate_gem5_se-m64.0000/
Process stdout file: /home/user/PrIDE/performance/gem5/stats/pride_multiprogram_16GBmem_250Mn.SPEC2017.C4/RFM2.BR1.4C/mix1/mix1.out_1
Process stderr file: /home/user/PrIDE/performance/gem5/stats/pride_multiprogram_16GBmem_250Mn.SPEC2017.C4/RFM2.BR1.4C/mix1/mix1.err_1
Benchmark- 2   bwaves
Selected benchmark
--> bwaves
CMD: ['/opt/spec2017/benchspec/CPU/503.bwaves_r/run/run_base_refrate_gem5_se-m64.0000/bwaves_r_base.gem5_se-m64', '/opt/spec2017/benchspec/CPU/503.bwaves_r/run/run_base_refrate_gem5_se-m64.0000/bwaves_1']
CWD: /opt/spec2017/benchspec/CPU/503.bwaves_r/run/run_base_refrate_gem5_se-m64.0000/
Process stdout file: /home/user/PrIDE/performance/gem5/stats/pride_multiprogram_16GBmem_250Mn.SPEC2017.C4/RFM2.BR1.4C/mix1/mix1.out_2
Process stderr file: /home/user/PrIDE/performance/gem5/stats/pride_multiprogram_16GBmem_250Mn.SPEC2017.C4/RFM2.BR1.4C/mix1/mix1.err_2
Benchmark- 3   roms
Selected benchmark
--> roms
CMD: ['/opt/spec2017/benchspec/CPU/554.roms_r/run/run_base_refrate_gem5_se-m64.0000/roms_r_base.gem5_se-m64']
CWD: /opt/spec2017/benchspec/CPU/554.roms_r/run/run_base_refrate_gem5_se-m64.0000/
Process stdout file: /home/user/PrIDE/performance/gem5/stats/pride_multiprogram_16GBmem_250Mn.SPEC2017.C4/RFM2.BR1.4C/mix1/mix1.out_3
Process stderr file: /home/user/PrIDE/performance/gem5/stats/pride_multiprogram_16GBmem_250Mn.SPEC2017.C4/RFM2.BR1.4C/mix1/mix1.err_3
Workload-0: 
['/opt/spec2017/benchspec/CPU/541.leela_r/run/run_base_refrate_gem5_se-m64.0000/leela_r_base.gem5_se-m64', '/opt/spec2017/benchspec/CPU/541.leela_r/run/run_base_refrate_gem5_se-m64.0000/ref.sgf']
Workload-1: 
['/opt/spec2017/benchspec/CPU/548.exchange2_r/run/run_base_refrate_gem5_se-m64.0000/exchange2_r_base.gem5_se-m64', '6']
Workload-2: 
['/opt/spec2017/benchspec/CPU/503.bwaves_r/run/run_base_refrate_gem5_se-m64.0000/bwaves_r_base.gem5_se-m64', '/opt/spec2017/benchspec/CPU/503.bwaves_r/run/run_base_refrate_gem5_se-m64.0000/bwaves_1']
Workload-3: 
['/opt/spec2017/benchspec/CPU/554.roms_r/run/run_base_refrate_gem5_se-m64.0000/roms_r_base.gem5_se-m64']
defense_enable:  True  detector:  MG  mitigation:  RFM  threshold:  800
mg_entries:  1700
rfm_maxacts_per_trefi:  79 rfm_per_trefi:  2 rfm_blast_radius:  1
Switch at curTick count:10000
warn: membus.master is deprecated. `master` is now called `mem_side_ports`
warn: No dot file generated. Please install pydot to generate the dot file and pdf.
info: Entering event queue @ 15651257077332.  Starting simulation...
info: Entering event queue @ 15651257087332.  Starting simulation...
warn: PowerState: Already in the requested power state, request ignored
Switched CPUS @ tick 15651257087332
switching cpus
**** REAL SIMULATION ****
info: Entering event queue @ 15651257087655.  Starting simulation...
15654590410665: Event_285: system.switch_cpus3 progress event, total committed:9142471, progress insts committed: 9142471, IPC: 0.913333
15654590410665: Event_284: system.switch_cpus2 progress event, total committed:39510675, progress insts committed: 39510675, IPC: 03.94712
15654590410665: Event_283: system.switch_cpus1 progress event, total committed:33093617, progress insts committed: 33093617, IPC: 03.30605
15654590410665: Event_282: system.switch_cpus0 progress event, total committed:18538041, progress insts committed: 18538041, IPC: 01.85195
15657923743998: Event_282: system.switch_cpus0 progress event, total committed:38497824, progress insts committed: 19959783, IPC: 01.99398
15657923743998: Event_283: system.switch_cpus1 progress event, total committed:66712117, progress insts committed: 33618500, IPC: 03.35849
15657923743998: Event_284: system.switch_cpus2 progress event, total committed:79063269, progress insts committed: 39552594, IPC: 003.9513
15657923743998: Event_285: system.switch_cpus3 progress event, total committed:18423995, progress insts committed: 9281524, IPC: 0.927224
15661257077331: Event_285: system.switch_cpus3 progress event, total committed:27739274, progress insts committed: 9315279, IPC: 0.930596
15661257077331: Event_284: system.switch_cpus2 progress event, total committed:119020465, progress insts committed: 39957196, IPC: 03.99172
15661257077331: Event_283: system.switch_cpus1 progress event, total committed:101472873, progress insts committed: 34760756, IPC: 003.4726
15661257077331: Event_282: system.switch_cpus0 progress event, total committed:58411160, progress insts committed: 19913336, IPC: 01.98934
15664590410664: Event_282: system.switch_cpus0 progress event, total committed:78172396, progress insts committed: 19761236, IPC: 01.97415
15664590410664: Event_283: system.switch_cpus1 progress event, total committed:137056955, progress insts committed: 35584082, IPC: 03.55485
15664590410664: Event_284: system.switch_cpus2 progress event, total committed:156542335, progress insts committed: 37521870, IPC: 03.74843
15664590410664: Event_285: system.switch_cpus3 progress event, total committed:38045019, progress insts committed: 10305745, IPC: 01.02954
15667923743997: Event_285: system.switch_cpus3 progress event, total committed:47077917, progress insts committed: 9032898, IPC: 0.902387
15667923743997: Event_284: system.switch_cpus2 progress event, total committed:187348353, progress insts committed: 30806018, IPC: 03.07752
15667923743997: Event_283: system.switch_cpus1 progress event, total committed:174358157, progress insts committed: 37301202, IPC: 03.72639
15667923743997: Event_282: system.switch_cpus0 progress event, total committed:97824257, progress insts committed: 19651861, IPC: 01.96322
15671257077330: Event_282: system.switch_cpus0 progress event, total committed:117635710, progress insts committed: 19811453, IPC: 01.97916
15671257077330: Event_283: system.switch_cpus1 progress event, total committed:210885414, progress insts committed: 36527257, IPC: 03.64907
15671257077330: Event_284: system.switch_cpus2 progress event, total committed:228904578, progress insts committed: 41556225, IPC: 04.15147
15671257077330: Event_285: system.switch_cpus3 progress event, total committed:60151870, progress insts committed: 13073953, IPC: 01.30609
15674590410663: Event_285: system.switch_cpus3 progress event, total committed:86746139, progress insts committed: 26594269, IPC: 02.65677
15674590410663: Event_284: system.switch_cpus2 progress event, total committed:267897698, progress insts committed: 38993120, IPC: 03.89541
15674590410663: Event_283: system.switch_cpus1 progress event, total committed:245411991, progress insts committed: 34526577, IPC: 03.44921
15674590410663: Event_282: system.switch_cpus0 progress event, total committed:137432885, progress insts committed: 19797175, IPC: 01.97774
15677923743996: Event_282: system.switch_cpus0 progress event, total committed:157430694, progress insts committed: 19997809, IPC: 01.99778
15677923743996: Event_283: system.switch_cpus1 progress event, total committed:281725397, progress insts committed: 36313406, IPC: 03.62771
15677923743996: Event_284: system.switch_cpus2 progress event, total committed:308235451, progress insts committed: 40337753, IPC: 04.02974
15677923743996: Event_285: system.switch_cpus3 progress event, total committed:113335914, progress insts committed: 26589775, IPC: 02.65632
15681257077329: Event_285: system.switch_cpus3 progress event, total committed:139600529, progress insts committed: 26264615, IPC: 02.62384
15681257077329: Event_284: system.switch_cpus2 progress event, total committed:348525561, progress insts committed: 40290110, IPC: 04.02498
15681257077329: Event_283: system.switch_cpus1 progress event, total committed:317717294, progress insts committed: 35991897, IPC: 03.59559
15681257077329: Event_282: system.switch_cpus0 progress event, total committed:177368439, progress insts committed: 19937745, IPC: 01.99178
15684590410662: Event_282: system.switch_cpus0 progress event, total committed:197420149, progress insts committed: 20051710, IPC: 02.00317
15684590410662: Event_283: system.switch_cpus1 progress event, total committed:352482775, progress insts committed: 34765481, IPC: 03.47307
15684590410662: Event_284: system.switch_cpus2 progress event, total committed:388965239, progress insts committed: 40439678, IPC: 04.03992
15684590410662: Event_285: system.switch_cpus3 progress event, total committed:163797864, progress insts committed: 24197335, IPC: 02.41731
15687923743995: Event_285: system.switch_cpus3 progress event, total committed:187627730, progress insts committed: 23829866, IPC: 002.3806
15687923743995: Event_284: system.switch_cpus2 progress event, total committed:427948471, progress insts committed: 38983232, IPC: 03.89442
15687923743995: Event_283: system.switch_cpus1 progress event, total committed:388787952, progress insts committed: 36305177, IPC: 03.62689
15687923743995: Event_282: system.switch_cpus0 progress event, total committed:217390009, progress insts committed: 19969860, IPC: 01.99499
Exiting @ tick 15691076045838 because a thread reached the max instruction count
