
---------- Begin Simulation Statistics ----------
final_tick                               15691079953260                       # Number of ticks from beginning of simulation (restored from checkpoints and never reset)
host_inst_rate                                  78835                       # Simulator instruction rate (inst/s)
host_mem_usage                               17332144                       # Number of bytes of host memory used
host_op_rate                                   146276                       # Simulator op (including micro ops) rate (op/s)
host_seconds                                  9141.31                       # Real time elapsed on the host
host_tick_rate                                4356361                       # Simulator tick rate (ticks/s)
sim_freq                                 1000000000000                       # Frequency of simulated ticks
sim_insts                                   720650749                       # Number of instructions simulated
sim_ops                                    1337151371                       # Number of ops (including micro ops) simulated
sim_seconds                                  0.039823                       # Number of seconds simulated
sim_ticks                                 39822834636                       # Number of ticks simulated
system.cpu0.Branches                                3                       # Number of branches fetched
system.cpu0.committedInsts                         13                       # Number of instructions committed
system.cpu0.committedOps                           23                       # Number of ops (including micro ops) committed
system.cpu0.idle_fraction                           0                       # Percentage of idle cycles
system.cpu0.l2bus.snoop_filter.hit_multi_requests          131                       # Number of requests hitting in the snoop filter with multiple (>1) holders of the requested data.
system.cpu0.l2bus.snoop_filter.hit_multi_snoops            0                       # Number of snoops hitting in the snoop filter with multiple (>1) holders of the requested data.
system.cpu0.l2bus.snoop_filter.hit_single_requests       481850                       # Number of requests hitting in the snoop filter with a single holder of the requested data.
system.cpu0.l2bus.snoop_filter.hit_single_snoops          498                       # Number of snoops hitting in the snoop filter with a single holder of the requested data.
system.cpu0.l2bus.snoop_filter.tot_requests       964557                       # Total number of requests made to the snoop filter.
system.cpu0.l2bus.snoop_filter.tot_snoops          498                       # Total number of snoops made to the snoop filter.
system.cpu0.mmucache.mmubus.snoop_filter.hit_multi_requests            0                       # Number of requests hitting in the snoop filter with multiple (>1) holders of the requested data.
system.cpu0.mmucache.mmubus.snoop_filter.hit_multi_snoops            0                       # Number of snoops hitting in the snoop filter with multiple (>1) holders of the requested data.
system.cpu0.mmucache.mmubus.snoop_filter.hit_single_requests            0                       # Number of requests hitting in the snoop filter with a single holder of the requested data.
system.cpu0.mmucache.mmubus.snoop_filter.hit_single_snoops            0                       # Number of snoops hitting in the snoop filter with a single holder of the requested data.
system.cpu0.mmucache.mmubus.snoop_filter.tot_requests            0                       # Total number of requests made to the snoop filter.
system.cpu0.mmucache.mmubus.snoop_filter.tot_snoops            0                       # Total number of snoops made to the snoop filter.
system.cpu0.not_idle_fraction                       1                       # Percentage of non-idle cycles
system.cpu0.numCycles                              30                       # number of cpu cycles simulated
system.cpu0.numWorkItemsCompleted                   0                       # number of work items this cpu completed
system.cpu0.numWorkItemsStarted                     0                       # number of work items this cpu started
system.cpu0.num_busy_cycles                        30                       # Number of busy cycles
system.cpu0.num_cc_register_reads                  15                       # number of times the CC registers were read
system.cpu0.num_cc_register_writes                 10                       # number of times the CC registers were written
system.cpu0.num_conditional_control_insts            3                       # number of instructions that are conditional controls
system.cpu0.num_fp_alu_accesses                     0                       # Number of float alu accesses
system.cpu0.num_fp_insts                            0                       # number of float instructions
system.cpu0.num_fp_register_reads                   0                       # number of times the floating registers were read
system.cpu0.num_fp_register_writes                  0                       # number of times the floating registers were written
system.cpu0.num_func_calls                          0                       # number of times a function call or return occured
system.cpu0.num_idle_cycles                         0                       # Number of idle cycles
system.cpu0.num_int_alu_accesses                   23                       # Number of integer alu accesses
system.cpu0.num_int_insts                          23                       # number of integer instructions
system.cpu0.num_int_register_reads                 39                       # number of times the integer registers were read
system.cpu0.num_int_register_writes                20                       # number of times the integer registers were written
system.cpu0.num_load_insts                          4                       # Number of load instructions
system.cpu0.num_mem_refs                            4                       # number of memory refs
system.cpu0.num_store_insts                         0                       # Number of store instructions
system.cpu0.num_vec_alu_accesses                    0                       # Number of vector alu accesses
system.cpu0.num_vec_insts                           0                       # number of vector instructions
system.cpu0.num_vec_register_reads                  0                       # number of times the vector registers were read
system.cpu0.num_vec_register_writes                 0                       # number of times the vector registers were written
system.cpu0.op_class::No_OpClass                    0      0.00%      0.00% # Class of executed instruction
system.cpu0.op_class::IntAlu                       19     82.61%     82.61% # Class of executed instruction
system.cpu0.op_class::IntMult                       0      0.00%     82.61% # Class of executed instruction
system.cpu0.op_class::IntDiv                        0      0.00%     82.61% # Class of executed instruction
system.cpu0.op_class::FloatAdd                      0      0.00%     82.61% # Class of executed instruction
system.cpu0.op_class::FloatCmp                      0      0.00%     82.61% # Class of executed instruction
system.cpu0.op_class::FloatCvt                      0      0.00%     82.61% # Class of executed instruction
system.cpu0.op_class::FloatMult                     0      0.00%     82.61% # Class of executed instruction
system.cpu0.op_class::FloatMultAcc                  0      0.00%     82.61% # Class of executed instruction
system.cpu0.op_class::FloatDiv                      0      0.00%     82.61% # Class of executed instruction
system.cpu0.op_class::FloatMisc                     0      0.00%     82.61% # Class of executed instruction
system.cpu0.op_class::FloatSqrt                     0      0.00%     82.61% # Class of executed instruction
system.cpu0.op_class::SimdAdd                       0      0.00%     82.61% # Class of executed instruction
system.cpu0.op_class::SimdAddAcc                    0      0.00%     82.61% # Class of executed instruction
system.cpu0.op_class::SimdAlu                       0      0.00%     82.61% # Class of executed instruction
system.cpu0.op_class::SimdCmp                       0      0.00%     82.61% # Class of executed instruction
system.cpu0.op_class::SimdCvt                       0      0.00%     82.61% # Class of executed instruction
system.cpu0.op_class::SimdMisc                      0      0.00%     82.61% # Class of executed instruction
system.cpu0.op_class::SimdMult                      0      0.00%     82.61% # Class of executed instruction
system.cpu0.op_class::SimdMultAcc                   0      0.00%     82.61% # Class of executed instruction
system.cpu0.op_class::SimdShift                     0      0.00%     82.61% # Class of executed instruction
system.cpu0.op_class::SimdShiftAcc                  0      0.00%     82.61% # Class of executed instruction
system.cpu0.op_class::SimdDiv                       0      0.00%     82.61% # Class of executed instruction
system.cpu0.op_class::SimdSqrt                      0      0.00%     82.61% # Class of executed instruction
system.cpu0.op_class::SimdFloatAdd                  0      0.00%     82.61% # Class of executed instruction
system.cpu0.op_class::SimdFloatAlu                  0      0.00%     82.61% # Class of executed instruction
system.cpu0.op_class::SimdFloatCmp                  0      0.00%     82.61% # Class of executed instruction
system.cpu0.op_class::SimdFloatCvt                  0      0.00%     82.61% # Class of executed instruction
system.cpu0.op_class::SimdFloatDiv                  0      0.00%     82.61% # Class of executed instruction
system.cpu0.op_class::SimdFloatMisc                 0      0.00%     82.61% # Class of executed instruction
system.cpu0.op_class::SimdFloatMult                 0      0.00%     82.61% # Class of executed instruction
system.cpu0.op_class::SimdFloatMultAcc              0      0.00%     82.61% # Class of executed instruction
system.cpu0.op_class::SimdFloatSqrt                 0      0.00%     82.61% # Class of executed instruction
system.cpu0.op_class::SimdReduceAdd                 0      0.00%     82.61% # Class of executed instruction
system.cpu0.op_class::SimdReduceAlu                 0      0.00%     82.61% # Class of executed instruction
system.cpu0.op_class::SimdReduceCmp                 0      0.00%     82.61% # Class of executed instruction
system.cpu0.op_class::SimdFloatReduceAdd            0      0.00%     82.61% # Class of executed instruction
system.cpu0.op_class::SimdFloatReduceCmp            0      0.00%     82.61% # Class of executed instruction
system.cpu0.op_class::SimdAes                       0      0.00%     82.61% # Class of executed instruction
system.cpu0.op_class::SimdAesMix                    0      0.00%     82.61% # Class of executed instruction
system.cpu0.op_class::SimdSha1Hash                  0      0.00%     82.61% # Class of executed instruction
system.cpu0.op_class::SimdSha1Hash2                 0      0.00%     82.61% # Class of executed instruction
system.cpu0.op_class::SimdSha256Hash                0      0.00%     82.61% # Class of executed instruction
system.cpu0.op_class::SimdSha256Hash2               0      0.00%     82.61% # Class of executed instruction
system.cpu0.op_class::SimdShaSigma2                 0      0.00%     82.61% # Class of executed instruction
system.cpu0.op_class::SimdShaSigma3                 0      0.00%     82.61% # Class of executed instruction
system.cpu0.op_class::SimdPredAlu                   0      0.00%     82.61% # Class of executed instruction
system.cpu0.op_class::MemRead                       4     17.39%    100.00% # Class of executed instruction
system.cpu0.op_class::MemWrite                      0      0.00%    100.00% # Class of executed instruction
system.cpu0.op_class::FloatMemRead                  0      0.00%    100.00% # Class of executed instruction
system.cpu0.op_class::FloatMemWrite                 0      0.00%    100.00% # Class of executed instruction
system.cpu0.op_class::IprAccess                     0      0.00%    100.00% # Class of executed instruction
system.cpu0.op_class::InstPrefetch                  0      0.00%    100.00% # Class of executed instruction
system.cpu0.op_class::total                        23                       # Class of executed instruction
system.cpu0.workload.numSyscalls                    0                       # Number of system calls
system.cpu1.Branches                                3                       # Number of branches fetched
system.cpu1.committedInsts                         14                       # Number of instructions committed
system.cpu1.committedOps                           26                       # Number of ops (including micro ops) committed
system.cpu1.idle_fraction                           0                       # Percentage of idle cycles
system.cpu1.l2bus.snoop_filter.hit_multi_requests            3                       # Number of requests hitting in the snoop filter with multiple (>1) holders of the requested data.
system.cpu1.l2bus.snoop_filter.hit_multi_snoops            0                       # Number of snoops hitting in the snoop filter with multiple (>1) holders of the requested data.
system.cpu1.l2bus.snoop_filter.hit_single_requests         6239                       # Number of requests hitting in the snoop filter with a single holder of the requested data.
system.cpu1.l2bus.snoop_filter.hit_single_snoops            0                       # Number of snoops hitting in the snoop filter with a single holder of the requested data.
system.cpu1.l2bus.snoop_filter.tot_requests        13290                       # Total number of requests made to the snoop filter.
system.cpu1.l2bus.snoop_filter.tot_snoops            0                       # Total number of snoops made to the snoop filter.
system.cpu1.mmucache.mmubus.snoop_filter.hit_multi_requests            0                       # Number of requests hitting in the snoop filter with multiple (>1) holders of the requested data.
system.cpu1.mmucache.mmubus.snoop_filter.hit_multi_snoops            0                       # Number of snoops hitting in the snoop filter with multiple (>1) holders of the requested data.
system.cpu1.mmucache.mmubus.snoop_filter.hit_single_requests            0                       # Number of requests hitting in the snoop filter with a single holder of the requested data.
system.cpu1.mmucache.mmubus.snoop_filter.hit_single_snoops            0                       # Number of snoops hitting in the snoop filter with a single holder of the requested data.
system.cpu1.mmucache.mmubus.snoop_filter.tot_requests            0                       # Total number of requests made to the snoop filter.
system.cpu1.mmucache.mmubus.snoop_filter.tot_snoops            0                       # Total number of snoops made to the snoop filter.
system.cpu1.not_idle_fraction                       1                       # Percentage of non-idle cycles
system.cpu1.numCycles                              30                       # number of cpu cycles simulated
system.cpu1.numWorkItemsCompleted                   0                       # number of work items this cpu completed
system.cpu1.numWorkItemsStarted                     0                       # number of work items this cpu started
system.cpu1.num_busy_cycles                        30                       # Number of busy cycles
system.cpu1.num_cc_register_reads                  16                       # number of times the CC registers were read
system.cpu1.num_cc_register_writes                 10                       # number of times the CC registers were written
system.cpu1.num_conditional_control_insts            3                       # number of instructions that are conditional controls
system.cpu1.num_fp_alu_accesses                     0                       # Number of float alu accesses
system.cpu1.num_fp_insts                            0                       # number of float instructions
system.cpu1.num_fp_register_reads                   0                       # number of times the floating registers were read
system.cpu1.num_fp_register_writes                  0                       # number of times the floating registers were written
system.cpu1.num_func_calls                          0                       # number of times a function call or return occured
system.cpu1.num_idle_cycles                         0                       # Number of idle cycles
system.cpu1.num_int_alu_accesses                   26                       # Number of integer alu accesses
system.cpu1.num_int_insts                          26                       # number of integer instructions
system.cpu1.num_int_register_reads                 48                       # number of times the integer registers were read
system.cpu1.num_int_register_writes                22                       # number of times the integer registers were written
system.cpu1.num_load_insts                          6                       # Number of load instructions
system.cpu1.num_mem_refs                            7                       # number of memory refs
system.cpu1.num_store_insts                         1                       # Number of store instructions
system.cpu1.num_vec_alu_accesses                    0                       # Number of vector alu accesses
system.cpu1.num_vec_insts                           0                       # number of vector instructions
system.cpu1.num_vec_register_reads                  0                       # number of times the vector registers were read
system.cpu1.num_vec_register_writes                 0                       # number of times the vector registers were written
system.cpu1.op_class::No_OpClass                    0      0.00%      0.00% # Class of executed instruction
system.cpu1.op_class::IntAlu                       19     73.08%     73.08% # Class of executed instruction
system.cpu1.op_class::IntMult                       0      0.00%     73.08% # Class of executed instruction
system.cpu1.op_class::IntDiv                        0      0.00%     73.08% # Class of executed instruction
system.cpu1.op_class::FloatAdd                      0      0.00%     73.08% # Class of executed instruction
system.cpu1.op_class::FloatCmp                      0      0.00%     73.08% # Class of executed instruction
system.cpu1.op_class::FloatCvt                      0      0.00%     73.08% # Class of executed instruction
system.cpu1.op_class::FloatMult                     0      0.00%     73.08% # Class of executed instruction
system.cpu1.op_class::FloatMultAcc                  0      0.00%     73.08% # Class of executed instruction
system.cpu1.op_class::FloatDiv                      0      0.00%     73.08% # Class of executed instruction
system.cpu1.op_class::FloatMisc                     0      0.00%     73.08% # Class of executed instruction
system.cpu1.op_class::FloatSqrt                     0      0.00%     73.08% # Class of executed instruction
system.cpu1.op_class::SimdAdd                       0      0.00%     73.08% # Class of executed instruction
system.cpu1.op_class::SimdAddAcc                    0      0.00%     73.08% # Class of executed instruction
system.cpu1.op_class::SimdAlu                       0      0.00%     73.08% # Class of executed instruction
system.cpu1.op_class::SimdCmp                       0      0.00%     73.08% # Class of executed instruction
system.cpu1.op_class::SimdCvt                       0      0.00%     73.08% # Class of executed instruction
system.cpu1.op_class::SimdMisc                      0      0.00%     73.08% # Class of executed instruction
system.cpu1.op_class::SimdMult                      0      0.00%     73.08% # Class of executed instruction
system.cpu1.op_class::SimdMultAcc                   0      0.00%     73.08% # Class of executed instruction
system.cpu1.op_class::SimdShift                     0      0.00%     73.08% # Class of executed instruction
system.cpu1.op_class::SimdShiftAcc                  0      0.00%     73.08% # Class of executed instruction
system.cpu1.op_class::SimdDiv                       0      0.00%     73.08% # Class of executed instruction
system.cpu1.op_class::SimdSqrt                      0      0.00%     73.08% # Class of executed instruction
system.cpu1.op_class::SimdFloatAdd                  0      0.00%     73.08% # Class of executed instruction
system.cpu1.op_class::SimdFloatAlu                  0      0.00%     73.08% # Class of executed instruction
system.cpu1.op_class::SimdFloatCmp                  0      0.00%     73.08% # Class of executed instruction
system.cpu1.op_class::SimdFloatCvt                  0      0.00%     73.08% # Class of executed instruction
system.cpu1.op_class::SimdFloatDiv                  0      0.00%     73.08% # Class of executed instruction
system.cpu1.op_class::SimdFloatMisc                 0      0.00%     73.08% # Class of executed instruction
system.cpu1.op_class::SimdFloatMult                 0      0.00%     73.08% # Class of executed instruction
system.cpu1.op_class::SimdFloatMultAcc              0      0.00%     73.08% # Class of executed instruction
system.cpu1.op_class::SimdFloatSqrt                 0      0.00%     73.08% # Class of executed instruction
system.cpu1.op_class::SimdReduceAdd                 0      0.00%     73.08% # Class of executed instruction
system.cpu1.op_class::SimdReduceAlu                 0      0.00%     73.08% # Class of executed instruction
system.cpu1.op_class::SimdReduceCmp                 0      0.00%     73.08% # Class of executed instruction
system.cpu1.op_class::SimdFloatReduceAdd            0      0.00%     73.08% # Class of executed instruction
system.cpu1.op_class::SimdFloatReduceCmp            0      0.00%     73.08% # Class of executed instruction
system.cpu1.op_class::SimdAes                       0      0.00%     73.08% # Class of executed instruction
system.cpu1.op_class::SimdAesMix                    0      0.00%     73.08% # Class of executed instruction
system.cpu1.op_class::SimdSha1Hash                  0      0.00%     73.08% # Class of executed instruction
system.cpu1.op_class::SimdSha1Hash2                 0      0.00%     73.08% # Class of executed instruction
system.cpu1.op_class::SimdSha256Hash                0      0.00%     73.08% # Class of executed instruction
system.cpu1.op_class::SimdSha256Hash2               0      0.00%     73.08% # Class of executed instruction
system.cpu1.op_class::SimdShaSigma2                 0      0.00%     73.08% # Class of executed instruction
system.cpu1.op_class::SimdShaSigma3                 0      0.00%     73.08% # Class of executed instruction
system.cpu1.op_class::SimdPredAlu                   0      0.00%     73.08% # Class of executed instruction
system.cpu1.op_class::MemRead                       6     23.08%     96.15% # Class of executed instruction
system.cpu1.op_class::MemWrite                      1      3.85%    100.00% # Class of executed instruction
system.cpu1.op_class::FloatMemRead                  0      0.00%    100.00% # Class of executed instruction
system.cpu1.op_class::FloatMemWrite                 0      0.00%    100.00% # Class of executed instruction
system.cpu1.op_class::IprAccess                     0      0.00%    100.00% # Class of executed instruction
system.cpu1.op_class::InstPrefetch                  0      0.00%    100.00% # Class of executed instruction
system.cpu1.op_class::total                        26                       # Class of executed instruction
system.cpu1.workload.numSyscalls                    0                       # Number of system calls
system.cpu2.Branches                                3                       # Number of branches fetched
system.cpu2.committedInsts                         15                       # Number of instructions committed
system.cpu2.committedOps                           29                       # Number of ops (including micro ops) committed
system.cpu2.idle_fraction                           0                       # Percentage of idle cycles
system.cpu2.l2bus.snoop_filter.hit_multi_requests            2                       # Number of requests hitting in the snoop filter with multiple (>1) holders of the requested data.
system.cpu2.l2bus.snoop_filter.hit_multi_snoops            0                       # Number of snoops hitting in the snoop filter with multiple (>1) holders of the requested data.
system.cpu2.l2bus.snoop_filter.hit_single_requests        40841                       # Number of requests hitting in the snoop filter with a single holder of the requested data.
system.cpu2.l2bus.snoop_filter.hit_single_snoops          549                       # Number of snoops hitting in the snoop filter with a single holder of the requested data.
system.cpu2.l2bus.snoop_filter.tot_requests        82469                       # Total number of requests made to the snoop filter.
system.cpu2.l2bus.snoop_filter.tot_snoops          549                       # Total number of snoops made to the snoop filter.
system.cpu2.mmucache.mmubus.snoop_filter.hit_multi_requests            0                       # Number of requests hitting in the snoop filter with multiple (>1) holders of the requested data.
system.cpu2.mmucache.mmubus.snoop_filter.hit_multi_snoops            0                       # Number of snoops hitting in the snoop filter with multiple (>1) holders of the requested data.
system.cpu2.mmucache.mmubus.snoop_filter.hit_single_requests            0                       # Number of requests hitting in the snoop filter with a single holder of the requested data.
system.cpu2.mmucache.mmubus.snoop_filter.hit_single_snoops            0                       # Number of snoops hitting in the snoop filter with a single holder of the requested data.
system.cpu2.mmucache.mmubus.snoop_filter.tot_requests            0                       # Total number of requests made to the snoop filter.
system.cpu2.mmucache.mmubus.snoop_filter.tot_snoops            0                       # Total number of snoops made to the snoop filter.
system.cpu2.not_idle_fraction                       1                       # Percentage of non-idle cycles
system.cpu2.numCycles                              32                       # number of cpu cycles simulated
system.cpu2.numWorkItemsCompleted                   0                       # number of work items this cpu completed
system.cpu2.numWorkItemsStarted                     0                       # number of work items this cpu started
system.cpu2.num_busy_cycles                        32                       # Number of busy cycles
system.cpu2.num_cc_register_reads                  13                       # number of times the CC registers were read
system.cpu2.num_cc_register_writes                 19                       # number of times the CC registers were written
system.cpu2.num_conditional_control_insts            2                       # number of instructions that are conditional controls
system.cpu2.num_fp_alu_accesses                     0                       # Number of float alu accesses
system.cpu2.num_fp_insts                            0                       # number of float instructions
system.cpu2.num_fp_register_reads                   0                       # number of times the floating registers were read
system.cpu2.num_fp_register_writes                  0                       # number of times the floating registers were written
system.cpu2.num_func_calls                          0                       # number of times a function call or return occured
system.cpu2.num_idle_cycles                         0                       # Number of idle cycles
system.cpu2.num_int_alu_accesses                   29                       # Number of integer alu accesses
system.cpu2.num_int_insts                          29                       # number of integer instructions
system.cpu2.num_int_register_reads                 54                       # number of times the integer registers were read
system.cpu2.num_int_register_writes                26                       # number of times the integer registers were written
system.cpu2.num_load_insts                          3                       # Number of load instructions
system.cpu2.num_mem_refs                            4                       # number of memory refs
system.cpu2.num_store_insts                         1                       # Number of store instructions
system.cpu2.num_vec_alu_accesses                    0                       # Number of vector alu accesses
system.cpu2.num_vec_insts                           0                       # number of vector instructions
system.cpu2.num_vec_register_reads                  0                       # number of times the vector registers were read
system.cpu2.num_vec_register_writes                 0                       # number of times the vector registers were written
system.cpu2.op_class::No_OpClass                    0      0.00%      0.00% # Class of executed instruction
system.cpu2.op_class::IntAlu                       24     82.76%     82.76% # Class of executed instruction
system.cpu2.op_class::IntMult                       1      3.45%     86.21% # Class of executed instruction
system.cpu2.op_class::IntDiv                        0      0.00%     86.21% # Class of executed instruction
system.cpu2.op_class::FloatAdd                      0      0.00%     86.21% # Class of executed instruction
system.cpu2.op_class::FloatCmp                      0      0.00%     86.21% # Class of executed instruction
system.cpu2.op_class::FloatCvt                      0      0.00%     86.21% # Class of executed instruction
system.cpu2.op_class::FloatMult                     0      0.00%     86.21% # Class of executed instruction
system.cpu2.op_class::FloatMultAcc                  0      0.00%     86.21% # Class of executed instruction
system.cpu2.op_class::FloatDiv                      0      0.00%     86.21% # Class of executed instruction
system.cpu2.op_class::FloatMisc                     0      0.00%     86.21% # Class of executed instruction
system.cpu2.op_class::FloatSqrt                     0      0.00%     86.21% # Class of executed instruction
system.cpu2.op_class::SimdAdd                       0      0.00%     86.21% # Class of executed instruction
system.cpu2.op_class::SimdAddAcc                    0      0.00%     86.21% # Class of executed instruction
system.cpu2.op_class::SimdAlu                       0      0.00%     86.21% # Class of executed instruction
system.cpu2.op_class::SimdCmp                       0      0.00%     86.21% # Class of executed instruction
system.cpu2.op_class::SimdCvt                       0      0.00%     86.21% # Class of executed instruction
system.cpu2.op_class::SimdMisc                      0      0.00%     86.21% # Class of executed instruction
system.cpu2.op_class::SimdMult                      0      0.00%     86.21% # Class of executed instruction
system.cpu2.op_class::SimdMultAcc                   0      0.00%     86.21% # Class of executed instruction
system.cpu2.op_class::SimdShift                     0      0.00%     86.21% # Class of executed instruction
system.cpu2.op_class::SimdShiftAcc                  0      0.00%     86.21% # Class of executed instruction
system.cpu2.op_class::SimdDiv                       0      0.00%     86.21% # Class of executed instruction
system.cpu2.op_class::SimdSqrt                      0      0.00%     86.21% # Class of executed instruction
system.cpu2.op_class::SimdFloatAdd                  0      0.00%     86.21% # Class of executed instruction
system.cpu2.op_class::SimdFloatAlu                  0      0.00%     86.21% # Class of executed instruction
system.cpu2.op_class::SimdFloatCmp                  0      0.00%     86.21% # Class of executed instruction
system.cpu2.op_class::SimdFloatCvt                  0      0.00%     86.21% # Class of executed instruction
system.cpu2.op_class::SimdFloatDiv                  0      0.00%     86.21% # Class of executed instruction
system.cpu2.op_class::SimdFloatMisc                 0      0.00%     86.21% # Class of executed instruction
system.cpu2.op_class::SimdFloatMult                 0      0.00%     86.21% # Class of executed instruction
system.cpu2.op_class::SimdFloatMultAcc              0      0.00%     86.21% # Class of executed instruction
system.cpu2.op_class::SimdFloatSqrt                 0      0.00%     86.21% # Class of executed instruction
system.cpu2.op_class::SimdReduceAdd                 0      0.00%     86.21% # Class of executed instruction
system.cpu2.op_class::SimdReduceAlu                 0      0.00%     86.21% # Class of executed instruction
system.cpu2.op_class::SimdReduceCmp                 0      0.00%     86.21% # Class of executed instruction
system.cpu2.op_class::SimdFloatReduceAdd            0      0.00%     86.21% # Class of executed instruction
system.cpu2.op_class::SimdFloatReduceCmp            0      0.00%     86.21% # Class of executed instruction
system.cpu2.op_class::SimdAes                       0      0.00%     86.21% # Class of executed instruction
system.cpu2.op_class::SimdAesMix                    0      0.00%     86.21% # Class of executed instruction
system.cpu2.op_class::SimdSha1Hash                  0      0.00%     86.21% # Class of executed instruction
system.cpu2.op_class::SimdSha1Hash2                 0      0.00%     86.21% # Class of executed instruction
system.cpu2.op_class::SimdSha256Hash                0      0.00%     86.21% # Class of executed instruction
system.cpu2.op_class::SimdSha256Hash2               0      0.00%     86.21% # Class of executed instruction
system.cpu2.op_class::SimdShaSigma2                 0      0.00%     86.21% # Class of executed instruction
system.cpu2.op_class::SimdShaSigma3                 0      0.00%     86.21% # Class of executed instruction
system.cpu2.op_class::SimdPredAlu                   0      0.00%     86.21% # Class of executed instruction
system.cpu2.op_class::MemRead                       3     10.34%     96.55% # Class of executed instruction
system.cpu2.op_class::MemWrite                      1      3.45%    100.00% # Class of executed instruction
system.cpu2.op_class::FloatMemRead                  0      0.00%    100.00% # Class of executed instruction
system.cpu2.op_class::FloatMemWrite                 0      0.00%    100.00% # Class of executed instruction
system.cpu2.op_class::IprAccess                     0      0.00%    100.00% # Class of executed instruction
system.cpu2.op_class::InstPrefetch                  0      0.00%    100.00% # Class of executed instruction
system.cpu2.op_class::total                        29                       # Class of executed instruction
system.cpu2.workload.numSyscalls                    0                       # Number of system calls
system.cpu3.Branches                                1                       # Number of branches fetched
system.cpu3.committedInsts                         16                       # Number of instructions committed
system.cpu3.committedOps                           22                       # Number of ops (including micro ops) committed
system.cpu3.idle_fraction                           0                       # Percentage of idle cycles
system.cpu3.l2bus.snoop_filter.hit_multi_requests            2                       # Number of requests hitting in the snoop filter with multiple (>1) holders of the requested data.
system.cpu3.l2bus.snoop_filter.hit_multi_snoops            0                       # Number of snoops hitting in the snoop filter with multiple (>1) holders of the requested data.
system.cpu3.l2bus.snoop_filter.hit_single_requests      1700194                       # Number of requests hitting in the snoop filter with a single holder of the requested data.
system.cpu3.l2bus.snoop_filter.hit_single_snoops         2817                       # Number of snoops hitting in the snoop filter with a single holder of the requested data.
system.cpu3.l2bus.snoop_filter.tot_requests      3317811                       # Total number of requests made to the snoop filter.
system.cpu3.l2bus.snoop_filter.tot_snoops         2817                       # Total number of snoops made to the snoop filter.
system.cpu3.mmucache.mmubus.snoop_filter.hit_multi_requests            0                       # Number of requests hitting in the snoop filter with multiple (>1) holders of the requested data.
system.cpu3.mmucache.mmubus.snoop_filter.hit_multi_snoops            0                       # Number of snoops hitting in the snoop filter with multiple (>1) holders of the requested data.
system.cpu3.mmucache.mmubus.snoop_filter.hit_single_requests            0                       # Number of requests hitting in the snoop filter with a single holder of the requested data.
system.cpu3.mmucache.mmubus.snoop_filter.hit_single_snoops            0                       # Number of snoops hitting in the snoop filter with a single holder of the requested data.
system.cpu3.mmucache.mmubus.snoop_filter.tot_requests            0                       # Total number of requests made to the snoop filter.
system.cpu3.mmucache.mmubus.snoop_filter.tot_snoops            0                       # Total number of snoops made to the snoop filter.
system.cpu3.not_idle_fraction                       1                       # Percentage of non-idle cycles
system.cpu3.numCycles                              30                       # number of cpu cycles simulated
system.cpu3.numWorkItemsCompleted                   0                       # number of work items this cpu completed
system.cpu3.numWorkItemsStarted                     0                       # number of work items this cpu started
system.cpu3.num_busy_cycles                        30                       # Number of busy cycles
system.cpu3.num_cc_register_reads                   5                       # number of times the CC registers were read
system.cpu3.num_cc_register_writes                  6                       # number of times the CC registers were written
system.cpu3.num_conditional_control_insts            1                       # number of instructions that are conditional controls
system.cpu3.num_fp_alu_accesses                    13                       # Number of float alu accesses
system.cpu3.num_fp_insts                           13                       # number of float instructions
system.cpu3.num_fp_register_reads                  23                       # number of times the floating registers were read
system.cpu3.num_fp_register_writes                 12                       # number of times the floating registers were written
system.cpu3.num_func_calls                          0                       # number of times a function call or return occured
system.cpu3.num_idle_cycles                         0                       # Number of idle cycles
system.cpu3.num_int_alu_accesses                   14                       # Number of integer alu accesses
system.cpu3.num_int_insts                          14                       # number of integer instructions
system.cpu3.num_int_register_reads                 31                       # number of times the integer registers were read
system.cpu3.num_int_register_writes                 8                       # number of times the integer registers were written
system.cpu3.num_load_insts                          6                       # Number of load instructions
system.cpu3.num_mem_refs                            7                       # number of memory refs
system.cpu3.num_store_insts                         1                       # Number of store instructions
system.cpu3.num_vec_alu_accesses                    0                       # Number of vector alu accesses
system.cpu3.num_vec_insts                           0                       # number of vector instructions
system.cpu3.num_vec_register_reads                  0                       # number of times the vector registers were read
system.cpu3.num_vec_register_writes                 0                       # number of times the vector registers were written
system.cpu3.op_class::No_OpClass                    0      0.00%      0.00% # Class of executed instruction
system.cpu3.op_class::IntAlu                        9     40.91%     40.91% # Class of executed instruction
system.cpu3.op_class::IntMult                       0      0.00%     40.91% # Class of executed instruction
system.cpu3.op_class::IntDiv                        0      0.00%     40.91% # Class of executed instruction
system.cpu3.op_class::FloatAdd                      0      0.00%     40.91% # Class of executed instruction
system.cpu3.op_class::FloatCmp                      0      0.00%     40.91% # Class of executed instruction
system.cpu3.op_class::FloatCvt                      0      0.00%     40.91% # Class of executed instruction
system.cpu3.op_class::FloatMult                     0      0.00%     40.91% # Class of executed instruction
system.cpu3.op_class::FloatMultAcc                  0      0.00%     40.91% # Class of executed instruction
system.cpu3.op_class::FloatDiv                      0      0.00%     40.91% # Class of executed instruction
system.cpu3.op_class::FloatMisc                     0      0.00%     40.91% # Class of executed instruction
system.cpu3.op_class::FloatSqrt                     0      0.00%     40.91% # Class of executed instruction
system.cpu3.op_class::SimdAdd                       0      0.00%     40.91% # Class of executed instruction
system.cpu3.op_class::SimdAddAcc                    0      0.00%     40.91% # Class of executed instruction
system.cpu3.op_class::SimdAlu                       0      0.00%     40.91% # Class of executed instruction
system.cpu3.op_class::SimdCmp                       0      0.00%     40.91% # Class of executed instruction
system.cpu3.op_class::SimdCvt                       0      0.00%     40.91% # Class of executed instruction
system.cpu3.op_class::SimdMisc                      0      0.00%     40.91% # Class of executed instruction
system.cpu3.op_class::SimdMult                      0      0.00%     40.91% # Class of executed instruction
system.cpu3.op_class::SimdMultAcc                   0      0.00%     40.91% # Class of executed instruction
system.cpu3.op_class::SimdShift                     0      0.00%     40.91% # Class of executed instruction
system.cpu3.op_class::SimdShiftAcc                  0      0.00%     40.91% # Class of executed instruction
system.cpu3.op_class::SimdDiv                       0      0.00%     40.91% # Class of executed instruction
system.cpu3.op_class::SimdSqrt                      0      0.00%     40.91% # Class of executed instruction
system.cpu3.op_class::SimdFloatAdd                  4     18.18%     59.09% # Class of executed instruction
system.cpu3.op_class::SimdFloatAlu                  0      0.00%     59.09% # Class of executed instruction
system.cpu3.op_class::SimdFloatCmp                  0      0.00%     59.09% # Class of executed instruction
system.cpu3.op_class::SimdFloatCvt                  0      0.00%     59.09% # Class of executed instruction
system.cpu3.op_class::SimdFloatDiv                  0      0.00%     59.09% # Class of executed instruction
system.cpu3.op_class::SimdFloatMisc                 0      0.00%     59.09% # Class of executed instruction
system.cpu3.op_class::SimdFloatMult                 2      9.09%     68.18% # Class of executed instruction
system.cpu3.op_class::SimdFloatMultAcc              0      0.00%     68.18% # Class of executed instruction
system.cpu3.op_class::SimdFloatSqrt                 0      0.00%     68.18% # Class of executed instruction
system.cpu3.op_class::SimdReduceAdd                 0      0.00%     68.18% # Class of executed instruction
system.cpu3.op_class::SimdReduceAlu                 0      0.00%     68.18% # Class of executed instruction
system.cpu3.op_class::SimdReduceCmp                 0      0.00%     68.18% # Class of executed instruction
system.cpu3.op_class::SimdFloatReduceAdd            0      0.00%     68.18% # Class of executed instruction
system.cpu3.op_class::SimdFloatReduceCmp            0      0.00%     68.18% # Class of executed instruction
system.cpu3.op_class::SimdAes                       0      0.00%     68.18% # Class of executed instruction
system.cpu3.op_class::SimdAesMix                    0      0.00%     68.18% # Class of executed instruction
system.cpu3.op_class::SimdSha1Hash                  0      0.00%     68.18% # Class of executed instruction
system.cpu3.op_class::SimdSha1Hash2                 0      0.00%     68.18% # Class of executed instruction
system.cpu3.op_class::SimdSha256Hash                0      0.00%     68.18% # Class of executed instruction
system.cpu3.op_class::SimdSha256Hash2               0      0.00%     68.18% # Class of executed instruction
system.cpu3.op_class::SimdShaSigma2                 0      0.00%     68.18% # Class of executed instruction
system.cpu3.op_class::SimdShaSigma3                 0      0.00%     68.18% # Class of executed instruction
system.cpu3.op_class::SimdPredAlu                   0      0.00%     68.18% # Class of executed instruction
system.cpu3.op_class::MemRead                       2      9.09%     77.27% # Class of executed instruction
system.cpu3.op_class::MemWrite                      0      0.00%     77.27% # Class of executed instruction
system.cpu3.op_class::FloatMemRead                  4     18.18%     95.45% # Class of executed instruction
system.cpu3.op_class::FloatMemWrite                 1      4.55%    100.00% # Class of executed instruction
system.cpu3.op_class::IprAccess                     0      0.00%    100.00% # Class of executed instruction
system.cpu3.op_class::InstPrefetch                  0      0.00%    100.00% # Class of executed instruction
system.cpu3.op_class::total                        22                       # Class of executed instruction
system.cpu3.workload.numSyscalls                    0                       # Number of system calls
system.l3bus.snoop_filter.hit_multi_requests            0                       # Number of requests hitting in the snoop filter with multiple (>1) holders of the requested data.
system.l3bus.snoop_filter.hit_multi_snoops            0                       # Number of snoops hitting in the snoop filter with multiple (>1) holders of the requested data.
system.l3bus.snoop_filter.hit_single_requests      1279252                       # Number of requests hitting in the snoop filter with a single holder of the requested data.
system.l3bus.snoop_filter.hit_single_snoops            0                       # Number of snoops hitting in the snoop filter with a single holder of the requested data.
system.l3bus.snoop_filter.tot_requests        2573405                       # Total number of requests made to the snoop filter.
system.l3bus.snoop_filter.tot_snoops                0                       # Total number of snoops made to the snoop filter.
system.membus.snoop_filter.hit_multi_requests            0                       # Number of requests hitting in the snoop filter with multiple (>1) holders of the requested data.
system.membus.snoop_filter.hit_multi_snoops            0                       # Number of snoops hitting in the snoop filter with multiple (>1) holders of the requested data.
system.membus.snoop_filter.hit_single_requests       601046                       # Number of requests hitting in the snoop filter with a single holder of the requested data.
system.membus.snoop_filter.hit_single_snoops            0                       # Number of snoops hitting in the snoop filter with a single holder of the requested data.
system.membus.snoop_filter.tot_requests       1280276                       # Total number of requests made to the snoop filter.
system.membus.snoop_filter.tot_snoops               0                       # Total number of snoops made to the snoop filter.
system.switch_cpus0.cc_regfile_reads        167348139                       # number of cc regfile reads
system.switch_cpus0.cc_regfile_writes       113654731                       # number of cc regfile writes
system.switch_cpus0.committedInsts          126472126                       # Number of Instructions Simulated
system.switch_cpus0.committedOps            236214446                       # Number of Ops (including micro ops) Simulated
system.switch_cpus0.cpi                      0.945569                       # CPI: Cycles Per Instruction
system.switch_cpus0.cpi_total                0.945569                       # CPI: Total CPI of All Threads
system.switch_cpus0.fp_regfile_reads           852610                       # number of floating regfile reads
system.switch_cpus0.fp_regfile_writes          650164                       # number of floating regfile writes
system.switch_cpus0.idleCycles                  86288                       # Total number of cycles that the CPU has spent unscheduled due to idling
system.switch_cpus0.iew.branchMispredicts      2899221                       # Number of branch mispredicts detected at execute
system.switch_cpus0.iew.exec_branches        30438520                       # Number of branches executed
system.switch_cpus0.iew.exec_nop                    0                       # number of nop insts executed
system.switch_cpus0.iew.exec_rate            2.761575                       # Inst execution rate
system.switch_cpus0.iew.exec_refs            65975966                       # number of memory reference insts executed
system.switch_cpus0.iew.exec_stores          16278883                       # Number of stores executed
system.switch_cpus0.iew.exec_swp                    0                       # number of swp insts executed
system.switch_cpus0.iew.iewBlockCycles       20388738                       # Number of cycles IEW is blocking
system.switch_cpus0.iew.iewDispLoadInsts     61476361                       # Number of dispatched load instructions
system.switch_cpus0.iew.iewDispNonSpecInsts            3                       # Number of dispatched non-speculative instructions
system.switch_cpus0.iew.iewDispSquashedInsts        76422                       # Number of squashed instructions skipped by dispatch
system.switch_cpus0.iew.iewDispStoreInsts     20028789                       # Number of dispatched store instructions
system.switch_cpus0.iew.iewDispatchedInsts    401612455                       # Number of instructions dispatched to IQ
system.switch_cpus0.iew.iewExecLoadInsts     49697083                       # Number of load instructions executed
system.switch_cpus0.iew.iewExecSquashedInsts      5469958                       # Number of squashed instructions skipped in execute
system.switch_cpus0.iew.iewExecutedInsts    330251445                       # Number of executed instructions
system.switch_cpus0.iew.iewIQFullEvents          6421                       # Number of times the IQ has become full, causing a stall
system.switch_cpus0.iew.iewIdleCycles               0                       # Number of cycles IEW is idle
system.switch_cpus0.iew.iewLSQFullEvents        20646                       # Number of times the LSQ has become full, causing a stall
system.switch_cpus0.iew.iewSquashCycles       2570693                       # Number of cycles IEW is squashing
system.switch_cpus0.iew.iewUnblockCycles        28507                       # Number of cycles IEW is unblocking
system.switch_cpus0.iew.memOrderViolationEvents        19584                       # Number of memory order violations
system.switch_cpus0.iew.predictedNotTakenIncorrect      1602495                       # Number of branches that were predicted not taken incorrectly
system.switch_cpus0.iew.predictedTakenIncorrect      1296726                       # Number of branches that were predicted taken incorrectly
system.switch_cpus0.iew.wb_consumers        456628873                       # num instructions consuming a value
system.switch_cpus0.iew.wb_count            327896496                       # cumulative count of insts written-back
system.switch_cpus0.iew.wb_fanout            0.559759                       # average fanout of values written-back
system.switch_cpus0.iew.wb_producers        255602138                       # num instructions producing a value
system.switch_cpus0.iew.wb_rate              2.741883                       # insts written-back per cycle
system.switch_cpus0.iew.wb_sent             329632173                       # cumulative count of insts sent to commit
system.switch_cpus0.int_regfile_reads       511690542                       # number of integer regfile reads
system.switch_cpus0.int_regfile_writes      292933830                       # number of integer regfile writes
system.switch_cpus0.ipc                      1.057565                       # IPC: Instructions Per Cycle
system.switch_cpus0.ipc_total                1.057565                       # IPC: Total IPC of All Threads
system.switch_cpus0.iq.FU_type_0::No_OpClass      1786509      0.53%      0.53% # Type of FU issued
system.switch_cpus0.iq.FU_type_0::IntAlu    259052721     77.16%     77.70% # Type of FU issued
system.switch_cpus0.iq.FU_type_0::IntMult      1636788      0.49%     78.18% # Type of FU issued
system.switch_cpus0.iq.FU_type_0::IntDiv      4718246      1.41%     79.59% # Type of FU issued
system.switch_cpus0.iq.FU_type_0::FloatAdd        28364      0.01%     79.60% # Type of FU issued
system.switch_cpus0.iq.FU_type_0::FloatCmp            0      0.00%     79.60% # Type of FU issued
system.switch_cpus0.iq.FU_type_0::FloatCvt            0      0.00%     79.60% # Type of FU issued
system.switch_cpus0.iq.FU_type_0::FloatMult            0      0.00%     79.60% # Type of FU issued
system.switch_cpus0.iq.FU_type_0::FloatMultAcc            0      0.00%     79.60% # Type of FU issued
system.switch_cpus0.iq.FU_type_0::FloatDiv            0      0.00%     79.60% # Type of FU issued
system.switch_cpus0.iq.FU_type_0::FloatMisc            0      0.00%     79.60% # Type of FU issued
system.switch_cpus0.iq.FU_type_0::FloatSqrt            0      0.00%     79.60% # Type of FU issued
system.switch_cpus0.iq.FU_type_0::SimdAdd            0      0.00%     79.60% # Type of FU issued
system.switch_cpus0.iq.FU_type_0::SimdAddAcc            0      0.00%     79.60% # Type of FU issued
system.switch_cpus0.iq.FU_type_0::SimdAlu        26909      0.01%     79.60% # Type of FU issued
system.switch_cpus0.iq.FU_type_0::SimdCmp            0      0.00%     79.60% # Type of FU issued
system.switch_cpus0.iq.FU_type_0::SimdCvt            0      0.00%     79.60% # Type of FU issued
system.switch_cpus0.iq.FU_type_0::SimdMisc        58906      0.02%     79.62% # Type of FU issued
system.switch_cpus0.iq.FU_type_0::SimdMult            0      0.00%     79.62% # Type of FU issued
system.switch_cpus0.iq.FU_type_0::SimdMultAcc            0      0.00%     79.62% # Type of FU issued
system.switch_cpus0.iq.FU_type_0::SimdShift            0      0.00%     79.62% # Type of FU issued
system.switch_cpus0.iq.FU_type_0::SimdShiftAcc            0      0.00%     79.62% # Type of FU issued
system.switch_cpus0.iq.FU_type_0::SimdDiv            0      0.00%     79.62% # Type of FU issued
system.switch_cpus0.iq.FU_type_0::SimdSqrt            0      0.00%     79.62% # Type of FU issued
system.switch_cpus0.iq.FU_type_0::SimdFloatAdd        56035      0.02%     79.64% # Type of FU issued
system.switch_cpus0.iq.FU_type_0::SimdFloatAlu            0      0.00%     79.64% # Type of FU issued
system.switch_cpus0.iq.FU_type_0::SimdFloatCmp            0      0.00%     79.64% # Type of FU issued
system.switch_cpus0.iq.FU_type_0::SimdFloatCvt       125332      0.04%     79.68% # Type of FU issued
system.switch_cpus0.iq.FU_type_0::SimdFloatDiv         1476      0.00%     79.68% # Type of FU issued
system.switch_cpus0.iq.FU_type_0::SimdFloatMisc            0      0.00%     79.68% # Type of FU issued
system.switch_cpus0.iq.FU_type_0::SimdFloatMult            0      0.00%     79.68% # Type of FU issued
system.switch_cpus0.iq.FU_type_0::SimdFloatMultAcc            0      0.00%     79.68% # Type of FU issued
system.switch_cpus0.iq.FU_type_0::SimdFloatSqrt            0      0.00%     79.68% # Type of FU issued
system.switch_cpus0.iq.FU_type_0::SimdReduceAdd            0      0.00%     79.68% # Type of FU issued
system.switch_cpus0.iq.FU_type_0::SimdReduceAlu            0      0.00%     79.68% # Type of FU issued
system.switch_cpus0.iq.FU_type_0::SimdReduceCmp            0      0.00%     79.68% # Type of FU issued
system.switch_cpus0.iq.FU_type_0::SimdFloatReduceAdd            0      0.00%     79.68% # Type of FU issued
system.switch_cpus0.iq.FU_type_0::SimdFloatReduceCmp            0      0.00%     79.68% # Type of FU issued
system.switch_cpus0.iq.FU_type_0::SimdAes            0      0.00%     79.68% # Type of FU issued
system.switch_cpus0.iq.FU_type_0::SimdAesMix            0      0.00%     79.68% # Type of FU issued
system.switch_cpus0.iq.FU_type_0::SimdSha1Hash            0      0.00%     79.68% # Type of FU issued
system.switch_cpus0.iq.FU_type_0::SimdSha1Hash2            0      0.00%     79.68% # Type of FU issued
system.switch_cpus0.iq.FU_type_0::SimdSha256Hash            0      0.00%     79.68% # Type of FU issued
system.switch_cpus0.iq.FU_type_0::SimdSha256Hash2            0      0.00%     79.68% # Type of FU issued
system.switch_cpus0.iq.FU_type_0::SimdShaSigma2            0      0.00%     79.68% # Type of FU issued
system.switch_cpus0.iq.FU_type_0::SimdShaSigma3            0      0.00%     79.68% # Type of FU issued
system.switch_cpus0.iq.FU_type_0::SimdPredAlu            0      0.00%     79.68% # Type of FU issued
system.switch_cpus0.iq.FU_type_0::MemRead     51020510     15.20%     94.87% # Type of FU issued
system.switch_cpus0.iq.FU_type_0::MemWrite     16477699      4.91%     99.78% # Type of FU issued
system.switch_cpus0.iq.FU_type_0::FloatMemRead       431310      0.13%     99.91% # Type of FU issued
system.switch_cpus0.iq.FU_type_0::FloatMemWrite       300598      0.09%    100.00% # Type of FU issued
system.switch_cpus0.iq.FU_type_0::IprAccess            0      0.00%    100.00% # Type of FU issued
system.switch_cpus0.iq.FU_type_0::InstPrefetch            0      0.00%    100.00% # Type of FU issued
system.switch_cpus0.iq.FU_type_0::total     335721403                       # Type of FU issued
system.switch_cpus0.iq.fp_alu_accesses        1050367                       # Number of floating point alu accesses
system.switch_cpus0.iq.fp_inst_queue_reads      2091363                       # Number of floating instruction queue reads
system.switch_cpus0.iq.fp_inst_queue_wakeup_accesses      1008641                       # Number of floating instruction queue wakeup accesses
system.switch_cpus0.iq.fp_inst_queue_writes      1211270                       # Number of floating instruction queue writes
system.switch_cpus0.iq.fu_busy_cnt            5714259                       # FU busy when requested
system.switch_cpus0.iq.fu_busy_rate          0.017021                       # FU busy rate (busy events/executed inst)
system.switch_cpus0.iq.fu_full::No_OpClass            0      0.00%      0.00% # attempts to use FU when none available
system.switch_cpus0.iq.fu_full::IntAlu        4824382     84.43%     84.43% # attempts to use FU when none available
system.switch_cpus0.iq.fu_full::IntMult             0      0.00%     84.43% # attempts to use FU when none available
system.switch_cpus0.iq.fu_full::IntDiv              0      0.00%     84.43% # attempts to use FU when none available
system.switch_cpus0.iq.fu_full::FloatAdd            0      0.00%     84.43% # attempts to use FU when none available
system.switch_cpus0.iq.fu_full::FloatCmp            0      0.00%     84.43% # attempts to use FU when none available
system.switch_cpus0.iq.fu_full::FloatCvt            0      0.00%     84.43% # attempts to use FU when none available
system.switch_cpus0.iq.fu_full::FloatMult            0      0.00%     84.43% # attempts to use FU when none available
system.switch_cpus0.iq.fu_full::FloatMultAcc            0      0.00%     84.43% # attempts to use FU when none available
system.switch_cpus0.iq.fu_full::FloatDiv            0      0.00%     84.43% # attempts to use FU when none available
system.switch_cpus0.iq.fu_full::FloatMisc            0      0.00%     84.43% # attempts to use FU when none available
system.switch_cpus0.iq.fu_full::FloatSqrt            0      0.00%     84.43% # attempts to use FU when none available
system.switch_cpus0.iq.fu_full::SimdAdd             0      0.00%     84.43% # attempts to use FU when none available
system.switch_cpus0.iq.fu_full::SimdAddAcc            0      0.00%     84.43% # attempts to use FU when none available
system.switch_cpus0.iq.fu_full::SimdAlu             0      0.00%     84.43% # attempts to use FU when none available
system.switch_cpus0.iq.fu_full::SimdCmp             0      0.00%     84.43% # attempts to use FU when none available
system.switch_cpus0.iq.fu_full::SimdCvt             0      0.00%     84.43% # attempts to use FU when none available
system.switch_cpus0.iq.fu_full::SimdMisc            0      0.00%     84.43% # attempts to use FU when none available
system.switch_cpus0.iq.fu_full::SimdMult            0      0.00%     84.43% # attempts to use FU when none available
system.switch_cpus0.iq.fu_full::SimdMultAcc            0      0.00%     84.43% # attempts to use FU when none available
system.switch_cpus0.iq.fu_full::SimdShift            0      0.00%     84.43% # attempts to use FU when none available
system.switch_cpus0.iq.fu_full::SimdShiftAcc            0      0.00%     84.43% # attempts to use FU when none available
system.switch_cpus0.iq.fu_full::SimdDiv             0      0.00%     84.43% # attempts to use FU when none available
system.switch_cpus0.iq.fu_full::SimdSqrt            0      0.00%     84.43% # attempts to use FU when none available
system.switch_cpus0.iq.fu_full::SimdFloatAdd            0      0.00%     84.43% # attempts to use FU when none available
system.switch_cpus0.iq.fu_full::SimdFloatAlu            0      0.00%     84.43% # attempts to use FU when none available
system.switch_cpus0.iq.fu_full::SimdFloatCmp            0      0.00%     84.43% # attempts to use FU when none available
system.switch_cpus0.iq.fu_full::SimdFloatCvt            0      0.00%     84.43% # attempts to use FU when none available
system.switch_cpus0.iq.fu_full::SimdFloatDiv            0      0.00%     84.43% # attempts to use FU when none available
system.switch_cpus0.iq.fu_full::SimdFloatMisc            0      0.00%     84.43% # attempts to use FU when none available
system.switch_cpus0.iq.fu_full::SimdFloatMult            0      0.00%     84.43% # attempts to use FU when none available
system.switch_cpus0.iq.fu_full::SimdFloatMultAcc            0      0.00%     84.43% # attempts to use FU when none available
system.switch_cpus0.iq.fu_full::SimdFloatSqrt            0      0.00%     84.43% # attempts to use FU when none available
system.switch_cpus0.iq.fu_full::SimdReduceAdd            0      0.00%     84.43% # attempts to use FU when none available
system.switch_cpus0.iq.fu_full::SimdReduceAlu            0      0.00%     84.43% # attempts to use FU when none available
system.switch_cpus0.iq.fu_full::SimdReduceCmp            0      0.00%     84.43% # attempts to use FU when none available
system.switch_cpus0.iq.fu_full::SimdFloatReduceAdd            0      0.00%     84.43% # attempts to use FU when none available
system.switch_cpus0.iq.fu_full::SimdFloatReduceCmp            0      0.00%     84.43% # attempts to use FU when none available
system.switch_cpus0.iq.fu_full::SimdAes             0      0.00%     84.43% # attempts to use FU when none available
system.switch_cpus0.iq.fu_full::SimdAesMix            0      0.00%     84.43% # attempts to use FU when none available
system.switch_cpus0.iq.fu_full::SimdSha1Hash            0      0.00%     84.43% # attempts to use FU when none available
system.switch_cpus0.iq.fu_full::SimdSha1Hash2            0      0.00%     84.43% # attempts to use FU when none available
system.switch_cpus0.iq.fu_full::SimdSha256Hash            0      0.00%     84.43% # attempts to use FU when none available
system.switch_cpus0.iq.fu_full::SimdSha256Hash2            0      0.00%     84.43% # attempts to use FU when none available
system.switch_cpus0.iq.fu_full::SimdShaSigma2            0      0.00%     84.43% # attempts to use FU when none available
system.switch_cpus0.iq.fu_full::SimdShaSigma3            0      0.00%     84.43% # attempts to use FU when none available
system.switch_cpus0.iq.fu_full::SimdPredAlu            0      0.00%     84.43% # attempts to use FU when none available
system.switch_cpus0.iq.fu_full::MemRead        701641     12.28%     96.71% # attempts to use FU when none available
system.switch_cpus0.iq.fu_full::MemWrite       176738      3.09%     99.80% # attempts to use FU when none available
system.switch_cpus0.iq.fu_full::FloatMemRead         4681      0.08%     99.88% # attempts to use FU when none available
system.switch_cpus0.iq.fu_full::FloatMemWrite         6817      0.12%    100.00% # attempts to use FU when none available
system.switch_cpus0.iq.fu_full::IprAccess            0      0.00%    100.00% # attempts to use FU when none available
system.switch_cpus0.iq.fu_full::InstPrefetch            0      0.00%    100.00% # attempts to use FU when none available
system.switch_cpus0.iq.int_alu_accesses     338598786                       # Number of integer alu accesses
system.switch_cpus0.iq.int_inst_queue_reads    796175965                       # Number of integer instruction queue reads
system.switch_cpus0.iq.int_inst_queue_wakeup_accesses    326887855                       # Number of integer instruction queue wakeup accesses
system.switch_cpus0.iq.int_inst_queue_writes    565817925                       # Number of integer instruction queue writes
system.switch_cpus0.iq.iqInstsAdded         401612446                       # Number of instructions added to the IQ (excludes non-spec)
system.switch_cpus0.iq.iqInstsIssued        335721403                       # Number of instructions issued
system.switch_cpus0.iq.iqNonSpecInstsAdded            9                       # Number of non-speculative instructions added to the IQ
system.switch_cpus0.iq.iqSquashedInstsExamined    165398005                       # Number of squashed instructions iterated over during squash; mainly for profiling
system.switch_cpus0.iq.iqSquashedInstsIssued      1608491                       # Number of squashed instructions issued
system.switch_cpus0.iq.iqSquashedNonSpecRemoved            9                       # Number of squashed non-spec instructions that were removed
system.switch_cpus0.iq.iqSquashedOperandsExamined    242059768                       # Number of squashed operands that are examined and possibly removed from graph
system.switch_cpus0.iq.issued_per_cycle::samples    119501772                       # Number of insts issued each cycle
system.switch_cpus0.iq.issued_per_cycle::mean     2.809342                       # Number of insts issued each cycle
system.switch_cpus0.iq.issued_per_cycle::stdev     2.591233                       # Number of insts issued each cycle
system.switch_cpus0.iq.issued_per_cycle::underflows            0      0.00%      0.00% # Number of insts issued each cycle
system.switch_cpus0.iq.issued_per_cycle::0     36716504     30.72%     30.72% # Number of insts issued each cycle
system.switch_cpus0.iq.issued_per_cycle::1     12618104     10.56%     41.28% # Number of insts issued each cycle
system.switch_cpus0.iq.issued_per_cycle::2     11852665      9.92%     51.20% # Number of insts issued each cycle
system.switch_cpus0.iq.issued_per_cycle::3     11620423      9.72%     60.93% # Number of insts issued each cycle
system.switch_cpus0.iq.issued_per_cycle::4     11621919      9.73%     70.65% # Number of insts issued each cycle
system.switch_cpus0.iq.issued_per_cycle::5     11215656      9.39%     80.04% # Number of insts issued each cycle
system.switch_cpus0.iq.issued_per_cycle::6     10498965      8.79%     88.82% # Number of insts issued each cycle
system.switch_cpus0.iq.issued_per_cycle::7      7883334      6.60%     95.42% # Number of insts issued each cycle
system.switch_cpus0.iq.issued_per_cycle::8      5474202      4.58%    100.00% # Number of insts issued each cycle
system.switch_cpus0.iq.issued_per_cycle::overflows            0      0.00%    100.00% # Number of insts issued each cycle
system.switch_cpus0.iq.issued_per_cycle::min_value            0                       # Number of insts issued each cycle
system.switch_cpus0.iq.issued_per_cycle::max_value            8                       # Number of insts issued each cycle
system.switch_cpus0.iq.issued_per_cycle::total    119501772                       # Number of insts issued each cycle
system.switch_cpus0.iq.rate                  2.807315                       # Inst issue rate
system.switch_cpus0.iq.vec_alu_accesses             0                       # Number of vector alu accesses
system.switch_cpus0.iq.vec_inst_queue_reads            0                       # Number of vector instruction queue reads
system.switch_cpus0.iq.vec_inst_queue_wakeup_accesses            0                       # Number of vector instruction queue wakeup accesses
system.switch_cpus0.iq.vec_inst_queue_writes            0                       # Number of vector instruction queue writes
system.switch_cpus0.memDep0.conflictingLoads      3468475                       # Number of conflicting loads.
system.switch_cpus0.memDep0.conflictingStores      1969055                       # Number of conflicting stores.
system.switch_cpus0.memDep0.insertedLoads     61476361                       # Number of loads inserted to the mem dependence unit.
system.switch_cpus0.memDep0.insertedStores     20028789                       # Number of stores inserted to the mem dependence unit.
system.switch_cpus0.misc_regfile_reads      128802603                       # number of misc regfile reads
system.switch_cpus0.misc_regfile_writes             1                       # number of misc regfile writes
system.switch_cpus0.numCycles               119588060                       # number of cpu cycles simulated
system.switch_cpus0.numWorkItemsCompleted            0                       # number of work items this cpu completed
system.switch_cpus0.numWorkItemsStarted             0                       # number of work items this cpu started
system.switch_cpus0.timesIdled                    370                       # Number of times that the entire CPU went into an idle state and unscheduled itself
system.switch_cpus1.cc_regfile_reads        205936458                       # number of cc regfile reads
system.switch_cpus1.cc_regfile_writes       211013393                       # number of cc regfile writes
system.switch_cpus1.committedInsts          215876771                       # Number of Instructions Simulated
system.switch_cpus1.committedOps            422923390                       # Number of Ops (including micro ops) Simulated
system.switch_cpus1.cpi                      0.553964                       # CPI: Cycles Per Instruction
system.switch_cpus1.cpi_total                0.553964                       # CPI: Total CPI of All Threads
system.switch_cpus1.fp_regfile_reads             6894                       # number of floating regfile reads
system.switch_cpus1.fp_regfile_writes            6986                       # number of floating regfile writes
system.switch_cpus1.idleCycles                 224673                       # Total number of cycles that the CPU has spent unscheduled due to idling
system.switch_cpus1.iew.branchMispredicts      2451996                       # Number of branch mispredicts detected at execute
system.switch_cpus1.iew.exec_branches        40361317                       # Number of branches executed
system.switch_cpus1.iew.exec_nop                    0                       # number of nop insts executed
system.switch_cpus1.iew.exec_rate            4.208621                       # Inst execution rate
system.switch_cpus1.iew.exec_refs           146528610                       # number of memory reference insts executed
system.switch_cpus1.iew.exec_stores          39849287                       # Number of stores executed
system.switch_cpus1.iew.exec_swp                    0                       # number of swp insts executed
system.switch_cpus1.iew.iewBlockCycles       14599681                       # Number of cycles IEW is blocking
system.switch_cpus1.iew.iewDispLoadInsts    116106051                       # Number of dispatched load instructions
system.switch_cpus1.iew.iewDispNonSpecInsts            0                       # Number of dispatched non-speculative instructions
system.switch_cpus1.iew.iewDispSquashedInsts        10753                       # Number of squashed instructions skipped by dispatch
system.switch_cpus1.iew.iewDispStoreInsts     46417279                       # Number of dispatched store instructions
system.switch_cpus1.iew.iewDispatchedInsts    546976774                       # Number of instructions dispatched to IQ
system.switch_cpus1.iew.iewExecLoadInsts    106679323                       # Number of load instructions executed
system.switch_cpus1.iew.iewExecSquashedInsts      6781159                       # Number of squashed instructions skipped in execute
system.switch_cpus1.iew.iewExecutedInsts    503300795                       # Number of executed instructions
system.switch_cpus1.iew.iewIQFullEvents            30                       # Number of times the IQ has become full, causing a stall
system.switch_cpus1.iew.iewIdleCycles               0                       # Number of cycles IEW is idle
system.switch_cpus1.iew.iewLSQFullEvents         2698                       # Number of times the LSQ has become full, causing a stall
system.switch_cpus1.iew.iewSquashCycles       2000657                       # Number of cycles IEW is squashing
system.switch_cpus1.iew.iewUnblockCycles         2739                       # Number of cycles IEW is unblocking
system.switch_cpus1.iew.memOrderViolationEvents        34668                       # Number of memory order violations
system.switch_cpus1.iew.predictedNotTakenIncorrect      1221104                       # Number of branches that were predicted not taken incorrectly
system.switch_cpus1.iew.predictedTakenIncorrect      1230892                       # Number of branches that were predicted taken incorrectly
system.switch_cpus1.iew.wb_consumers        565159769                       # num instructions consuming a value
system.switch_cpus1.iew.wb_count            500166491                       # cumulative count of insts written-back
system.switch_cpus1.iew.wb_fanout            0.668554                       # average fanout of values written-back
system.switch_cpus1.iew.wb_producers        377839857                       # num instructions producing a value
system.switch_cpus1.iew.wb_rate              4.182412                       # insts written-back per cycle
system.switch_cpus1.iew.wb_sent             502257296                       # cumulative count of insts sent to commit
system.switch_cpus1.int_regfile_reads       727208199                       # number of integer regfile reads
system.switch_cpus1.int_regfile_writes      422151775                       # number of integer regfile writes
system.switch_cpus1.ipc                      1.805170                       # IPC: Instructions Per Cycle
system.switch_cpus1.ipc_total                1.805170                       # IPC: Total IPC of All Threads
system.switch_cpus1.iq.FU_type_0::No_OpClass      1111831      0.22%      0.22% # Type of FU issued
system.switch_cpus1.iq.FU_type_0::IntAlu    356140718     69.82%     70.04% # Type of FU issued
system.switch_cpus1.iq.FU_type_0::IntMult      3017604      0.59%     70.63% # Type of FU issued
system.switch_cpus1.iq.FU_type_0::IntDiv        32116      0.01%     70.64% # Type of FU issued
system.switch_cpus1.iq.FU_type_0::FloatAdd            0      0.00%     70.64% # Type of FU issued
system.switch_cpus1.iq.FU_type_0::FloatCmp            0      0.00%     70.64% # Type of FU issued
system.switch_cpus1.iq.FU_type_0::FloatCvt            0      0.00%     70.64% # Type of FU issued
system.switch_cpus1.iq.FU_type_0::FloatMult            0      0.00%     70.64% # Type of FU issued
system.switch_cpus1.iq.FU_type_0::FloatMultAcc            0      0.00%     70.64% # Type of FU issued
system.switch_cpus1.iq.FU_type_0::FloatDiv            0      0.00%     70.64% # Type of FU issued
system.switch_cpus1.iq.FU_type_0::FloatMisc            0      0.00%     70.64% # Type of FU issued
system.switch_cpus1.iq.FU_type_0::FloatSqrt            0      0.00%     70.64% # Type of FU issued
system.switch_cpus1.iq.FU_type_0::SimdAdd            0      0.00%     70.64% # Type of FU issued
system.switch_cpus1.iq.FU_type_0::SimdAddAcc            0      0.00%     70.64% # Type of FU issued
system.switch_cpus1.iq.FU_type_0::SimdAlu            0      0.00%     70.64% # Type of FU issued
system.switch_cpus1.iq.FU_type_0::SimdCmp            0      0.00%     70.64% # Type of FU issued
system.switch_cpus1.iq.FU_type_0::SimdCvt            0      0.00%     70.64% # Type of FU issued
system.switch_cpus1.iq.FU_type_0::SimdMisc            0      0.00%     70.64% # Type of FU issued
system.switch_cpus1.iq.FU_type_0::SimdMult            0      0.00%     70.64% # Type of FU issued
system.switch_cpus1.iq.FU_type_0::SimdMultAcc            0      0.00%     70.64% # Type of FU issued
system.switch_cpus1.iq.FU_type_0::SimdShift            0      0.00%     70.64% # Type of FU issued
system.switch_cpus1.iq.FU_type_0::SimdShiftAcc            0      0.00%     70.64% # Type of FU issued
system.switch_cpus1.iq.FU_type_0::SimdDiv            0      0.00%     70.64% # Type of FU issued
system.switch_cpus1.iq.FU_type_0::SimdSqrt            0      0.00%     70.64% # Type of FU issued
system.switch_cpus1.iq.FU_type_0::SimdFloatAdd            0      0.00%     70.64% # Type of FU issued
system.switch_cpus1.iq.FU_type_0::SimdFloatAlu            0      0.00%     70.64% # Type of FU issued
system.switch_cpus1.iq.FU_type_0::SimdFloatCmp            0      0.00%     70.64% # Type of FU issued
system.switch_cpus1.iq.FU_type_0::SimdFloatCvt            0      0.00%     70.64% # Type of FU issued
system.switch_cpus1.iq.FU_type_0::SimdFloatDiv            0      0.00%     70.64% # Type of FU issued
system.switch_cpus1.iq.FU_type_0::SimdFloatMisc            0      0.00%     70.64% # Type of FU issued
system.switch_cpus1.iq.FU_type_0::SimdFloatMult            0      0.00%     70.64% # Type of FU issued
system.switch_cpus1.iq.FU_type_0::SimdFloatMultAcc            0      0.00%     70.64% # Type of FU issued
system.switch_cpus1.iq.FU_type_0::SimdFloatSqrt            0      0.00%     70.64% # Type of FU issued
system.switch_cpus1.iq.FU_type_0::SimdReduceAdd            0      0.00%     70.64% # Type of FU issued
system.switch_cpus1.iq.FU_type_0::SimdReduceAlu            0      0.00%     70.64% # Type of FU issued
system.switch_cpus1.iq.FU_type_0::SimdReduceCmp            0      0.00%     70.64% # Type of FU issued
system.switch_cpus1.iq.FU_type_0::SimdFloatReduceAdd            0      0.00%     70.64% # Type of FU issued
system.switch_cpus1.iq.FU_type_0::SimdFloatReduceCmp            0      0.00%     70.64% # Type of FU issued
[...]
system.switch_cpus3.commit.numCommittedDist::stdev     3.094435                       # Number of insts commited each cycle
system.switch_cpus3.commit.numCommittedDist::underflows            0      0.00%      0.00% # Number of insts commited each cycle
system.switch_cpus3.commit.numCommittedDist::0     82505107     69.04%     69.04% # Number of insts commited each cycle
system.switch_cpus3.commit.numCommittedDist::1      6328277      5.30%     74.34% # Number of insts commited each cycle
system.switch_cpus3.commit.numCommittedDist::2      2278454      1.91%     76.25% # Number of insts commited each cycle
system.switch_cpus3.commit.numCommittedDist::3      2763012      2.31%     78.56% # Number of insts commited each cycle
system.switch_cpus3.commit.numCommittedDist::4      1991897      1.67%     80.22% # Number of insts commited each cycle
system.switch_cpus3.commit.numCommittedDist::5       881655      0.74%     80.96% # Number of insts commited each cycle
system.switch_cpus3.commit.numCommittedDist::6       417932      0.35%     81.31% # Number of insts commited each cycle
system.switch_cpus3.commit.numCommittedDist::7      1360956      1.14%     82.45% # Number of insts commited each cycle
system.switch_cpus3.commit.numCommittedDist::8     20970075     17.55%    100.00% # Number of insts commited each cycle
system.switch_cpus3.commit.numCommittedDist::overflows            0      0.00%    100.00% # Number of insts commited each cycle
system.switch_cpus3.commit.numCommittedDist::min_value            0                       # Number of insts commited each cycle
system.switch_cpus3.commit.numCommittedDist::max_value            8                       # Number of insts commited each cycle
system.switch_cpus3.commit.numCommittedDist::total    119497365                       # Number of insts commited each cycle
system.switch_cpus3.commit.instsCommitted    128301791                       # Number of instructions committed
system.switch_cpus3.commit.opsCommitted     211344968                       # Number of ops (including micro ops) committed
system.switch_cpus3.commit.memRefs           47326510                       # Number of memory references committed
system.switch_cpus3.commit.loads             33343020                       # Number of loads committed
system.switch_cpus3.commit.amos                     0                       # Number of atomic instructions committed
system.switch_cpus3.commit.membars                  0                       # Number of memory barriers committed
system.switch_cpus3.commit.branches          15732659                       # Number of branches committed
system.switch_cpus3.commit.vector                   0                       # Number of committed Vector instructions.
system.switch_cpus3.commit.floating          90512108                       # Number of committed floating point instructions.
system.switch_cpus3.commit.integer          151677395                       # Number of committed integer instructions.
system.switch_cpus3.commit.functionCalls      1180161                       # Number of function calls committed.
system.switch_cpus3.commit.committedInstType_0::No_OpClass         8833      0.00%      0.00% # Class of committed instruction
system.switch_cpus3.commit.committedInstType_0::IntAlu    118447277     56.04%     56.05% # Class of committed instruction
system.switch_cpus3.commit.committedInstType_0::IntMult         3743      0.00%     56.05% # Class of committed instruction
system.switch_cpus3.commit.committedInstType_0::IntDiv            0      0.00%     56.05% # Class of committed instruction
system.switch_cpus3.commit.committedInstType_0::FloatAdd      4423979      2.09%     58.14% # Class of committed instruction
system.switch_cpus3.commit.committedInstType_0::FloatCmp            0      0.00%     58.14% # Class of committed instruction
system.switch_cpus3.commit.committedInstType_0::FloatCvt            0      0.00%     58.14% # Class of committed instruction
system.switch_cpus3.commit.committedInstType_0::FloatMult            0      0.00%     58.14% # Class of committed instruction
system.switch_cpus3.commit.committedInstType_0::FloatMultAcc            0      0.00%     58.14% # Class of committed instruction
system.switch_cpus3.commit.committedInstType_0::FloatDiv            0      0.00%     58.14% # Class of committed instruction
system.switch_cpus3.commit.committedInstType_0::FloatMisc            0      0.00%     58.14% # Class of committed instruction
system.switch_cpus3.commit.committedInstType_0::FloatSqrt            0      0.00%     58.14% # Class of committed instruction
system.switch_cpus3.commit.committedInstType_0::SimdAdd            0      0.00%     58.14% # Class of committed instruction
system.switch_cpus3.commit.committedInstType_0::SimdAddAcc            0      0.00%     58.14% # Class of committed instruction
system.switch_cpus3.commit.committedInstType_0::SimdAlu      4853498      2.30%     60.44% # Class of committed instruction
system.switch_cpus3.commit.committedInstType_0::SimdCmp            0      0.00%     60.44% # Class of committed instruction
system.switch_cpus3.commit.committedInstType_0::SimdCvt            0      0.00%     60.44% # Class of committed instruction
system.switch_cpus3.commit.committedInstType_0::SimdMisc      2656287      1.26%     61.70% # Class of committed instruction
system.switch_cpus3.commit.committedInstType_0::SimdMult            0      0.00%     61.70% # Class of committed instruction
system.switch_cpus3.commit.committedInstType_0::SimdMultAcc            0      0.00%     61.70% # Class of committed instruction
system.switch_cpus3.commit.committedInstType_0::SimdShift            0      0.00%     61.70% # Class of committed instruction
system.switch_cpus3.commit.committedInstType_0::SimdShiftAcc            0      0.00%     61.70% # Class of committed instruction
system.switch_cpus3.commit.committedInstType_0::SimdDiv            0      0.00%     61.70% # Class of committed instruction
system.switch_cpus3.commit.committedInstType_0::SimdSqrt            0      0.00%     61.70% # Class of committed instruction
system.switch_cpus3.commit.committedInstType_0::SimdFloatAdd     13800393      6.53%     68.23% # Class of committed instruction
system.switch_cpus3.commit.committedInstType_0::SimdFloatAlu            0      0.00%     68.23% # Class of committed instruction
system.switch_cpus3.commit.committedInstType_0::SimdFloatCmp       376832      0.18%     68.41% # Class of committed instruction
system.switch_cpus3.commit.committedInstType_0::SimdFloatCvt      3194880      1.51%     69.92% # Class of committed instruction
system.switch_cpus3.commit.committedInstType_0::SimdFloatDiv      2604028      1.23%     71.15% # Class of committed instruction
system.switch_cpus3.commit.committedInstType_0::SimdFloatMisc            0      0.00%     71.15% # Class of committed instruction
system.switch_cpus3.commit.committedInstType_0::SimdFloatMult     13239106      6.26%     77.41% # Class of committed instruction
system.switch_cpus3.commit.committedInstType_0::SimdFloatMultAcc            0      0.00%     77.41% # Class of committed instruction
system.switch_cpus3.commit.committedInstType_0::SimdFloatSqrt       409602      0.19%     77.61% # Class of committed instruction
system.switch_cpus3.commit.committedInstType_0::SimdReduceAdd            0      0.00%     77.61% # Class of committed instruction
system.switch_cpus3.commit.committedInstType_0::SimdReduceAlu            0      0.00%     77.61% # Class of committed instruction
system.switch_cpus3.commit.committedInstType_0::SimdReduceCmp            0      0.00%     77.61% # Class of committed instruction
system.switch_cpus3.commit.committedInstType_0::SimdFloatReduceAdd            0      0.00%     77.61% # Class of committed instruction
system.switch_cpus3.commit.committedInstType_0::SimdFloatReduceCmp            0      0.00%     77.61% # Class of committed instruction
system.switch_cpus3.commit.committedInstType_0::SimdAes            0      0.00%     77.61% # Class of committed instruction
system.switch_cpus3.commit.committedInstType_0::SimdAesMix            0      0.00%     77.61% # Class of committed instruction
system.switch_cpus3.commit.committedInstType_0::SimdSha1Hash            0      0.00%     77.61% # Class of committed instruction
system.switch_cpus3.commit.committedInstType_0::SimdSha1Hash2            0      0.00%     77.61% # Class of committed instruction
system.switch_cpus3.commit.committedInstType_0::SimdSha256Hash            0      0.00%     77.61% # Class of committed instruction
system.switch_cpus3.commit.committedInstType_0::SimdSha256Hash2            0      0.00%     77.61% # Class of committed instruction
system.switch_cpus3.commit.committedInstType_0::SimdShaSigma2            0      0.00%     77.61% # Class of committed instruction
system.switch_cpus3.commit.committedInstType_0::SimdShaSigma3            0      0.00%     77.61% # Class of committed instruction
system.switch_cpus3.commit.committedInstType_0::SimdPredAlu            0      0.00%     77.61% # Class of committed instruction
system.switch_cpus3.commit.committedInstType_0::MemRead     12854453      6.08%     83.69% # Class of committed instruction
system.switch_cpus3.commit.committedInstType_0::MemWrite      6271977      2.97%     86.66% # Class of committed instruction
system.switch_cpus3.commit.committedInstType_0::FloatMemRead     20488567      9.69%     96.35% # Class of committed instruction
system.switch_cpus3.commit.committedInstType_0::FloatMemWrite      7711513      3.65%    100.00% # Class of committed instruction
system.switch_cpus3.commit.committedInstType_0::IprAccess            0      0.00%    100.00% # Class of committed instruction
system.switch_cpus3.commit.committedInstType_0::InstPrefetch            0      0.00%    100.00% # Class of committed instruction
system.switch_cpus3.commit.committedInstType_0::total    211344968                       # Class of committed instruction
system.switch_cpus3.commit.commitEligibleSamples     20970075                       # number cycles where commit BW limit reached
system.switch_cpus3.decode.idleCycles         2146498                       # Number of cycles decode is idle
system.switch_cpus3.decode.blockedCycles     85704579                       # Number of cycles decode is blocked
system.switch_cpus3.decode.runCycles         29087689                       # Number of cycles decode is running
system.switch_cpus3.decode.unblockCycles      2594274                       # Number of cycles decode is unblocking
system.switch_cpus3.decode.squashCycles         11881                       # Number of cycles decode is squashing
system.switch_cpus3.decode.branchResolved      6140117                       # Number of times decode resolved a  branch
system.switch_cpus3.decode.branchMispred          107                       # Number of times decode detected a branch misprediction
system.switch_cpus3.decode.decodedInsts     211843527                       # Number of instructions handled by decode
system.switch_cpus3.decode.squashedInsts          526                       # Number of squashed instructions handled by decode
system.switch_cpus3.dtb.rdAccesses           33399868                       # TLB accesses on read requests
system.switch_cpus3.dtb.wrAccesses           13991688                       # TLB accesses on write requests
system.switch_cpus3.dtb.rdMisses                36934                       # TLB misses on read requests
system.switch_cpus3.dtb.wrMisses                 7183                       # TLB misses on write requests
system.switch_cpus3.dtb.walker.power_state.pwrStateResidencyTicks::UNDEFINED 15691079953260                       # Cumulative time (in ticks) in various power states
system.switch_cpus3.fetch.icacheStallCycles        37808                       # Number of cycles fetch is stalled on an Icache miss
system.switch_cpus3.fetch.insts             128845917                       # Number of instructions fetch has processed
system.switch_cpus3.fetch.branches           15773517                       # Number of branches that fetch encountered
system.switch_cpus3.fetch.predictedBranches      8810876                       # Number of branches that fetch has predicted taken
system.switch_cpus3.fetch.cycles            119495137                       # Number of cycles fetch has run and was not squashing or blocked
system.switch_cpus3.fetch.squashCycles          23972                       # Number of cycles fetch has spent squashing
system.switch_cpus3.fetch.cacheLines         16140916                       # Number of cache lines fetched
system.switch_cpus3.fetch.icacheSquashes          176                       # Number of outstanding Icache misses that were squashed
system.switch_cpus3.fetch.nisnDist::samples    119544931                       # Number of instructions fetched each cycle (Total)
system.switch_cpus3.fetch.nisnDist::mean     1.774247                       # Number of instructions fetched each cycle (Total)
system.switch_cpus3.fetch.nisnDist::stdev     3.102850                       # Number of instructions fetched each cycle (Total)
system.switch_cpus3.fetch.nisnDist::underflows            0      0.00%      0.00% # Number of instructions fetched each cycle (Total)
system.switch_cpus3.fetch.nisnDist::0        84531041     70.71%     70.71% # Number of instructions fetched each cycle (Total)
system.switch_cpus3.fetch.nisnDist::1         3874232      3.24%     73.95% # Number of instructions fetched each cycle (Total)
system.switch_cpus3.fetch.nisnDist::2         1167616      0.98%     74.93% # Number of instructions fetched each cycle (Total)
system.switch_cpus3.fetch.nisnDist::3         4189383      3.50%     78.43% # Number of instructions fetched each cycle (Total)
system.switch_cpus3.fetch.nisnDist::4         1015870      0.85%     79.28% # Number of instructions fetched each cycle (Total)
system.switch_cpus3.fetch.nisnDist::5         1739353      1.45%     80.74% # Number of instructions fetched each cycle (Total)
system.switch_cpus3.fetch.nisnDist::6         1172441      0.98%     81.72% # Number of instructions fetched each cycle (Total)
system.switch_cpus3.fetch.nisnDist::7         1310180      1.10%     82.81% # Number of instructions fetched each cycle (Total)
system.switch_cpus3.fetch.nisnDist::8        20544815     17.19%    100.00% # Number of instructions fetched each cycle (Total)
system.switch_cpus3.fetch.nisnDist::overflows            0      0.00%    100.00% # Number of instructions fetched each cycle (Total)
system.switch_cpus3.fetch.nisnDist::min_value            0                       # Number of instructions fetched each cycle (Total)
system.switch_cpus3.fetch.nisnDist::max_value            8                       # Number of instructions fetched each cycle (Total)
system.switch_cpus3.fetch.nisnDist::total    119544931                       # Number of instructions fetched each cycle (Total)
system.switch_cpus3.fetch.branchRate         0.131899                       # Number of branch fetches per cycle
system.switch_cpus3.fetch.rate               1.077415                       # Number of inst fetches per cycle
system.switch_cpus3.itb.rdAccesses                  0                       # TLB accesses on read requests
system.switch_cpus3.itb.wrAccesses           16140916                       # TLB accesses on write requests
system.switch_cpus3.itb.rdMisses                    0                       # TLB misses on read requests
system.switch_cpus3.itb.wrMisses                   21                       # TLB misses on write requests
system.switch_cpus3.itb.walker.power_state.pwrStateResidencyTicks::UNDEFINED 15691079953260                       # Cumulative time (in ticks) in various power states
system.switch_cpus3.lsq0.forwLoads            2414613                       # Number of loads that had data forwarded from stores
system.switch_cpus3.lsq0.squashedLoads          80032                       # Number of loads squashed
system.switch_cpus3.lsq0.ignoredResponses           34                       # Number of memory responses ignored because the instruction is squashed
system.switch_cpus3.lsq0.memOrderViolation          807                       # Number of memory ordering violations
system.switch_cpus3.lsq0.squashedStores         33668                       # Number of stores squashed
system.switch_cpus3.lsq0.rescheduledLoads            0                       # Number of loads that were rescheduled
system.switch_cpus3.lsq0.blockedByCache             7                       # Number of times an access to memory failed due to the cache being blocked
system.switch_cpus3.power_state.pwrStateResidencyTicks::OFF  39822834636                       # Cumulative time (in ticks) in various power states
system.switch_cpus3.rename.squashCycles         11881                       # Number of cycles rename is squashing
system.switch_cpus3.rename.idleCycles         3278593                       # Number of cycles rename is idle
system.switch_cpus3.rename.blockCycles       34874063                       # Number of cycles rename is blocking
system.switch_cpus3.rename.serializeStallCycles            0                       # count of cycles rename stalledfor serializing inst
system.switch_cpus3.rename.runCycles         30495054                       # Number of cycles rename is running
system.switch_cpus3.rename.unblockCycles     50885330                       # Number of cycles rename is unblocking
system.switch_cpus3.rename.renamedInsts     211760502                       # Number of instructions processed by rename
system.switch_cpus3.rename.ROBFullEvents      1224167                       # Number of times rename has blocked due to ROB full
system.switch_cpus3.rename.IQFullEvents       3091329                       # Number of times rename has blocked due to IQ full
system.switch_cpus3.rename.LQFullEvents      19012188                       # Number of times rename has blocked due to LQ full
system.switch_cpus3.rename.SQFullEvents      29121823                       # Number of times rename has blocked due to SQ full
system.switch_cpus3.rename.renamedOperands    232920262                       # Number of destination operands rename has renamed
system.switch_cpus3.rename.lookups          515308253                       # Number of register rename lookups that rename has made
system.switch_cpus3.rename.intLookups       208411725                       # Number of integer rename lookups
system.switch_cpus3.rename.fpLookups        151128483                       # Number of floating rename lookups
system.switch_cpus3.rename.committedMaps    232454563                       # Number of HB maps that are committed
system.switch_cpus3.rename.undoneMaps          465699                       # Number of HB maps that are undone due to squashing
system.switch_cpus3.rename.serializing              0                       # count of serializing insts renamed
system.switch_cpus3.rename.tempSerializing            0                       # count of temporary serializing insts renamed
system.switch_cpus3.rename.skidInsts         13920450                       # count of insts added to the skid buffer
system.switch_cpus3.rob.reads               310201833                       # The number of ROB reads
system.switch_cpus3.rob.writes              423396745                       # The number of ROB writes
system.switch_cpus3.thread0.numInsts        128301791                       # Number of Instructions committed
system.switch_cpus3.thread0.numOps          211344968                       # Number of Ops committed
system.switch_cpus3.thread0.numMemRefs              0                       # Number of Memory References
system.voltage_domain.voltage                       1                       # Voltage in Volts

---------- End Simulation Statistics   ----------
