
---------- Begin Simulation Statistics ----------
final_tick                               15691076045838                       # Number of ticks from beginning of simulation (restored from checkpoints and never reset)
host_inst_rate                                 126605                       # Simulator instruction rate (inst/s)
host_mem_usage                               17332148                       # Number of bytes of host memory used
host_op_rate                                   234905                       # Simulator op (including micro ops) rate (op/s)
host_seconds                                  5692.33                       # Real time elapsed on the host
host_tick_rate                                6995203                       # Simulator tick rate (ticks/s)
sim_freq                                 1000000000000                       # Frequency of simulated ticks
sim_insts                                   720676131                       # Number of instructions simulated
sim_ops                                    1337155522                       # Number of ops (including micro ops) simulated
sim_seconds                                  0.039819                       # Number of seconds simulated
sim_ticks                                 39818968506                       # Number of ticks simulated
system.cpu0.Branches                                2                       # Number of branches fetched
system.cpu0.committedInsts                         14                       # Number of instructions committed
system.cpu0.committedOps                           24                       # Number of ops (including micro ops) committed
system.cpu0.idle_fraction                           0                       # Percentage of idle cycles
system.cpu0.l2bus.snoop_filter.hit_multi_requests           80                       # Number of requests hitting in the snoop filter with multiple (>1) holders of the requested data.
system.cpu0.l2bus.snoop_filter.hit_multi_snoops            0                       # Number of snoops hitting in the snoop filter with multiple (>1) holders of the requested data.
system.cpu0.l2bus.snoop_filter.hit_single_requests       481986                       # Number of requests hitting in the snoop filter with a single holder of the requested data.
system.cpu0.l2bus.snoop_filter.hit_single_snoops          481                       # Number of snoops hitting in the snoop filter with a single holder of the requested data.
system.cpu0.l2bus.snoop_filter.tot_requests       964838                       # Total number of requests made to the snoop filter.
system.cpu0.l2bus.snoop_filter.tot_snoops          481                       # Total number of snoops made to the snoop filter.
system.cpu0.mmucache.mmubus.snoop_filter.hit_multi_requests            0                       # Number of requests hitting in the snoop filter with multiple (>1) holders of the requested data.
system.cpu0.mmucache.mmubus.snoop_filter.hit_multi_snoops            0                       # Number of snoops hitting in the snoop filter with multiple (>1) holders of the requested data.
system.cpu0.mmucache.mmubus.snoop_filter.hit_single_requests            0                       # Number of requests hitting in the snoop filter with a single holder of the requested data.
system.cpu0.mmucache.mmubus.snoop_filter.hit_single_snoops            0                       # Number of snoops hitting in the snoop filter with a single holder of the requested data.
system.cpu0.mmucache.mmubus.snoop_filter.tot_requests            0                       # Total number of requests made to the snoop filter.
system.cpu0.mmucache.mmubus.snoop_filter.tot_snoops            0                       # Total number of snoops made to the snoop filter.
system.cpu0.not_idle_fraction                       1                       # Percentage of non-idle cycles
system.cpu0.numCycles                              30                       # number of cpu cycles simulated
system.cpu0.numWorkItemsCompleted                   0                       # number of work items this cpu completed
system.cpu0.numWorkItemsStarted                     0                       # number of work items this cpu started
system.cpu0.num_busy_cycles                        30                       # Number of busy cycles
system.cpu0.num_cc_register_reads                   9                       # number of times the CC registers were read
system.cpu0.num_cc_register_writes                 11                       # number of times the CC registers were written
system.cpu0.num_conditional_control_insts            1                       # number of instructions that are conditional controls
system.cpu0.num_fp_alu_accesses                     0                       # Number of float alu accesses
system.cpu0.num_fp_insts                            0                       # number of float instructions
system.cpu0.num_fp_register_reads                   0                       # number of times the floating registers were read
system.cpu0.num_fp_register_writes                  0                       # number of times the floating registers were written
system.cpu0.num_func_calls                          1                       # number of times a function call or return occured
system.cpu0.num_idle_cycles                         0                       # Number of idle cycles
system.cpu0.num_int_alu_accesses                   24                       # Number of integer alu accesses
system.cpu0.num_int_insts                          24                       # number of integer instructions
system.cpu0.num_int_register_reads                 49                       # number of times the integer registers were read
system.cpu0.num_int_register_writes                23                       # number of times the integer registers were written
system.cpu0.num_load_insts                          6                       # Number of load instructions
system.cpu0.num_mem_refs                            6                       # number of memory refs
system.cpu0.num_store_insts                         0                       # Number of store instructions
system.cpu0.num_vec_alu_accesses                    0                       # Number of vector alu accesses
system.cpu0.num_vec_insts                           0                       # number of vector instructions
system.cpu0.num_vec_register_reads                  0                       # number of times the vector registers were read
system.cpu0.num_vec_register_writes                 0                       # number of times the vector registers were written
system.cpu0.op_class::No_OpClass                    0      0.00%      0.00% # Class of executed instruction
system.cpu0.op_class::IntAlu                       17     70.83%     70.83% # Class of executed instruction
system.cpu0.op_class::IntMult                       1      4.17%     75.00% # Class of executed instruction
system.cpu0.op_class::IntDiv                        0      0.00%     75.00% # Class of executed instruction
system.cpu0.op_class::FloatAdd                      0      0.00%     75.00% # Class of executed instruction
system.cpu0.op_class::FloatCmp                      0      0.00%     75.00% # Class of executed instruction
system.cpu0.op_class::FloatCvt                      0      0.00%     75.00% # Class of executed instruction
system.cpu0.op_class::FloatMult                     0      0.00%     75.00% # Class of executed instruction
system.cpu0.op_class::FloatMultAcc                  0      0.00%     75.00% # Class of executed instruction
system.cpu0.op_class::FloatDiv                      0      0.00%     75.00% # Class of executed instruction
system.cpu0.op_class::FloatMisc                     0      0.00%     75.00% # Class of executed instruction
system.cpu0.op_class::FloatSqrt                     0      0.00%     75.00% # Class of executed instruction
system.cpu0.op_class::SimdAdd                       0      0.00%     75.00% # Class of executed instruction
system.cpu0.op_class::SimdAddAcc                    0      0.00%     75.00% # Class of executed instruction
system.cpu0.op_class::SimdAlu                       0      0.00%     75.00% # Class of executed instruction
system.cpu0.op_class::SimdCmp                       0      0.00%     75.00% # Class of executed instruction
system.cpu0.op_class::SimdCvt                       0      0.00%     75.00% # Class of executed instruction
system.cpu0.op_class::SimdMisc                      0      0.00%     75.00% # Class of executed instruction
system.cpu0.op_class::SimdMult                      0      0.00%     75.00% # Class of executed instruction
system.cpu0.op_class::SimdMultAcc                   0      0.00%     75.00% # Class of executed instruction
system.cpu0.op_class::SimdShift                     0      0.00%     75.00% # Class of executed instruction
system.cpu0.op_class::SimdShiftAcc                  0      0.00%     75.00% # Class of executed instruction
system.cpu0.op_class::SimdDiv                       0      0.00%     75.00% # Class of executed instruction
system.cpu0.op_class::SimdSqrt                      0      0.00%     75.00% # Class of executed instruction
system.cpu0.op_class::SimdFloatAdd                  0      0.00%     75.00% # Class of executed instruction
system.cpu0.op_class::SimdFloatAlu                  0      0.00%     75.00% # Class of executed instruction
system.cpu0.op_class::SimdFloatCmp                  0      0.00%     75.00% # Class of executed instruction
system.cpu0.op_class::SimdFloatCvt                  0      0.00%     75.00% # Class of executed instruction
system.cpu0.op_class::SimdFloatDiv                  0      0.00%     75.00% # Class of executed instruction
system.cpu0.op_class::SimdFloatMisc                 0      0.00%     75.00% # Class of executed instruction
system.cpu0.op_class::SimdFloatMult                 0      0.00%     75.00% # Class of executed instruction
system.cpu0.op_class::SimdFloatMultAcc              0      0.00%     75.00% # Class of executed instruction
system.cpu0.op_class::SimdFloatSqrt                 0      0.00%     75.00% # Class of executed instruction
system.cpu0.op_class::SimdReduceAdd                 0      0.00%     75.00% # Class of executed instruction
system.cpu0.op_class::SimdReduceAlu                 0      0.00%     75.00% # Class of executed instruction
system.cpu0.op_class::SimdReduceCmp                 0      0.00%     75.00% # Class of executed instruction
system.cpu0.op_class::SimdFloatReduceAdd            0      0.00%     75.00% # Class of executed instruction
system.cpu0.op_class::SimdFloatReduceCmp            0      0.00%     75.00% # Class of executed instruction
system.cpu0.op_class::SimdAes                       0      0.00%     75.00% # Class of executed instruction
system.cpu0.op_class::SimdAesMix                    0      0.00%     75.00% # Class of executed instruction
system.cpu0.op_class::SimdSha1Hash                  0      0.00%     75.00% # Class of executed instruction
system.cpu0.op_class::SimdSha1Hash2                 0      0.00%     75.00% # Class of executed instruction
system.cpu0.op_class::SimdSha256Hash                0      0.00%     75.00% # Class of executed instruction
system.cpu0.op_class::SimdSha256Hash2               0      0.00%     75.00% # Class of executed instruction
system.cpu0.op_class::SimdShaSigma2                 0      0.00%     75.00% # Class of executed instruction
system.cpu0.op_class::SimdShaSigma3                 0      0.00%     75.00% # Class of executed instruction
system.cpu0.op_class::SimdPredAlu                   0      0.00%     75.00% # Class of executed instruction
system.cpu0.op_class::MemRead                       6     25.00%    100.00% # Class of executed instruction
system.cpu0.op_class::MemWrite                      0      0.00%    100.00% # Class of executed instruction
system.cpu0.op_class::FloatMemRead                  0      0.00%    100.00% # Class of executed instruction
system.cpu0.op_class::FloatMemWrite                 0      0.00%    100.00% # Class of executed instruction
system.cpu0.op_class::IprAccess                     0      0.00%    100.00% # Class of executed instruction
system.cpu0.op_class::InstPrefetch                  0      0.00%    100.00% # Class of executed instruction
system.cpu0.op_class::total                        24                       # Class of executed instruction
system.cpu0.workload.numSyscalls                    0                       # Number of system calls
system.cpu1.Branches                                3                       # Number of branches fetched
system.cpu1.committedInsts                         12                       # Number of instructions committed
system.cpu1.committedOps                           27                       # Number of ops (including micro ops) committed
system.cpu1.idle_fraction                           0                       # Percentage of idle cycles
system.cpu1.l2bus.snoop_filter.hit_multi_requests            3                       # Number of requests hitting in the snoop filter with multiple (>1) holders of the requested data.
system.cpu1.l2bus.snoop_filter.hit_multi_snoops            0                       # Number of snoops hitting in the snoop filter with multiple (>1) holders of the requested data.
system.cpu1.l2bus.snoop_filter.hit_single_requests         6239                       # Number of requests hitting in the snoop filter with a single holder of the requested data.
system.cpu1.l2bus.snoop_filter.hit_single_snoops            0                       # Number of snoops hitting in the snoop filter with a single holder of the requested data.
system.cpu1.l2bus.snoop_filter.tot_requests        13290                       # Total number of requests made to the snoop filter.
system.cpu1.l2bus.snoop_filter.tot_snoops            0                       # Total number of snoops made to the snoop filter.
system.cpu1.mmucache.mmubus.snoop_filter.hit_multi_requests            0                       # Number of requests hitting in the snoop filter with multiple (>1) holders of the requested data.
system.cpu1.mmucache.mmubus.snoop_filter.hit_multi_snoops            0                       # Number of snoops hitting in the snoop filter with multiple (>1) holders of the requested data.
system.cpu1.mmucache.mmubus.snoop_filter.hit_single_requests            0                       # Number of requests hitting in the snoop filter with a single holder of the requested data.
system.cpu1.mmucache.mmubus.snoop_filter.hit_single_snoops            0                       # Number of snoops hitting in the snoop filter with a single holder of the requested data.
system.cpu1.mmucache.mmubus.snoop_filter.tot_requests            0                       # Total number of requests made to the snoop filter.
system.cpu1.mmucache.mmubus.snoop_filter.tot_snoops            0                       # Total number of snoops made to the snoop filter.
system.cpu1.not_idle_fraction                       1                       # Percentage of non-idle cycles
system.cpu1.numCycles                              30                       # number of cpu cycles simulated
system.cpu1.numWorkItemsCompleted                   0                       # number of work items this cpu completed
system.cpu1.numWorkItemsStarted                     0                       # number of work items this cpu started
system.cpu1.num_busy_cycles                        30                       # Number of busy cycles
system.cpu1.num_cc_register_reads                  11                       # number of times the CC registers were read
system.cpu1.num_cc_register_writes                 10                       # number of times the CC registers were written
system.cpu1.num_conditional_control_insts            2                       # number of instructions that are conditional controls
system.cpu1.num_fp_alu_accesses                     0                       # Number of float alu accesses
system.cpu1.num_fp_insts                            0                       # number of float instructions
system.cpu1.num_fp_register_reads                   0                       # number of times the floating registers were read
system.cpu1.num_fp_register_writes                  0                       # number of times the floating registers were written
system.cpu1.num_func_calls                          0                       # number of times a function call or return occured
system.cpu1.num_idle_cycles                         0                       # Number of idle cycles
system.cpu1.num_int_alu_accesses                   26                       # Number of integer alu accesses
system.cpu1.num_int_insts                          26                       # number of integer instructions
system.cpu1.num_int_register_reads                 44                       # number of times the integer registers were read
system.cpu1.num_int_register_writes                22                       # number of times the integer registers were written
system.cpu1.num_load_insts                          3                       # Number of load instructions
system.cpu1.num_mem_refs                            4                       # number of memory refs
system.cpu1.num_store_insts                         1                       # Number of store instructions
system.cpu1.num_vec_alu_accesses                    0                       # Number of vector alu accesses
system.cpu1.num_vec_insts                           0                       # number of vector instructions
system.cpu1.num_vec_register_reads                  0                       # number of times the vector registers were read
system.cpu1.num_vec_register_writes                 0                       # number of times the vector registers were written
system.cpu1.op_class::No_OpClass                    0      0.00%      0.00% # Class of executed instruction
system.cpu1.op_class::IntAlu                       23     85.19%     85.19% # Class of executed instruction
system.cpu1.op_class::IntMult                       0      0.00%     85.19% # Class of executed instruction
system.cpu1.op_class::IntDiv                        0      0.00%     85.19% # Class of executed instruction
system.cpu1.op_class::FloatAdd                      0      0.00%     85.19% # Class of executed instruction
system.cpu1.op_class::FloatCmp                      0      0.00%     85.19% # Class of executed instruction
system.cpu1.op_class::FloatCvt                      0      0.00%     85.19% # Class of executed instruction
system.cpu1.op_class::FloatMult                     0      0.00%     85.19% # Class of executed instruction
system.cpu1.op_class::FloatMultAcc                  0      0.00%     85.19% # Class of executed instruction
system.cpu1.op_class::FloatDiv                      0      0.00%     85.19% # Class of executed instruction
system.cpu1.op_class::FloatMisc                     0      0.00%     85.19% # Class of executed instruction
system.cpu1.op_class::FloatSqrt                     0      0.00%     85.19% # Class of executed instruction
system.cpu1.op_class::SimdAdd                       0      0.00%     85.19% # Class of executed instruction
system.cpu1.op_class::SimdAddAcc                    0      0.00%     85.19% # Class of executed instruction
system.cpu1.op_class::SimdAlu                       0      0.00%     85.19% # Class of executed instruction
system.cpu1.op_class::SimdCmp                       0      0.00%     85.19% # Class of executed instruction
system.cpu1.op_class::SimdCvt                       0      0.00%     85.19% # Class of executed instruction
system.cpu1.op_class::SimdMisc                      0      0.00%     85.19% # Class of executed instruction
system.cpu1.op_class::SimdMult                      0      0.00%     85.19% # Class of executed instruction
system.cpu1.op_class::SimdMultAcc                   0      0.00%     85.19% # Class of executed instruction
system.cpu1.op_class::SimdShift                     0      0.00%     85.19% # Class of executed instruction
system.cpu1.op_class::SimdShiftAcc                  0      0.00%     85.19% # Class of executed instruction
system.cpu1.op_class::SimdDiv                       0      0.00%     85.19% # Class of executed instruction
system.cpu1.op_class::SimdSqrt                      0      0.00%     85.19% # Class of executed instruction
system.cpu1.op_class::SimdFloatAdd                  0      0.00%     85.19% # Class of executed instruction
system.cpu1.op_class::SimdFloatAlu                  0      0.00%     85.19% # Class of executed instruction
system.cpu1.op_class::SimdFloatCmp                  0      0.00%     85.19% # Class of executed instruction
system.cpu1.op_class::SimdFloatCvt                  0      0.00%     85.19% # Class of executed instruction
system.cpu1.op_class::SimdFloatDiv                  0      0.00%     85.19% # Class of executed instruction
system.cpu1.op_class::SimdFloatMisc                 0      0.00%     85.19% # Class of executed instruction
system.cpu1.op_class::SimdFloatMult                 0      0.00%     85.19% # Class of executed instruction
system.cpu1.op_class::SimdFloatMultAcc              0      0.00%     85.19% # Class of executed instruction
system.cpu1.op_class::SimdFloatSqrt                 0      0.00%     85.19% # Class of executed instruction
system.cpu1.op_class::SimdReduceAdd                 0      0.00%     85.19% # Class of executed instruction
system.cpu1.op_class::SimdReduceAlu                 0      0.00%     85.19% # Class of executed instruction
system.cpu1.op_class::SimdReduceCmp                 0      0.00%     85.19% # Class of executed instruction
system.cpu1.op_class::SimdFloatReduceAdd            0      0.00%     85.19% # Class of executed instruction
system.cpu1.op_class::SimdFloatReduceCmp            0      0.00%     85.19% # Class of executed instruction
system.cpu1.op_class::SimdAes                       0      0.00%     85.19% # Class of executed instruction
system.cpu1.op_class::SimdAesMix                    0      0.00%     85.19% # Class of executed instruction
system.cpu1.op_class::SimdSha1Hash                  0      0.00%     85.19% # Class of executed instruction
system.cpu1.op_class::SimdSha1Hash2                 0      0.00%     85.19% # Class of executed instruction
system.cpu1.op_class::SimdSha256Hash                0      0.00%     85.19% # Class of executed instruction
system.cpu1.op_class::SimdSha256Hash2               0      0.00%     85.19% # Class of executed instruction
system.cpu1.op_class::SimdShaSigma2                 0      0.00%     85.19% # Class of executed instruction
system.cpu1.op_class::SimdShaSigma3                 0      0.00%     85.19% # Class of executed instruction
system.cpu1.op_class::SimdPredAlu                   0      0.00%     85.19% # Class of executed instruction
system.cpu1.op_class::MemRead                       3     11.11%     96.30% # Class of executed instruction
system.cpu1.op_class::MemWrite                      1      3.70%    100.00% # Class of executed instruction
system.cpu1.op_class::FloatMemRead                  0      0.00%    100.00% # Class of executed instruction
system.cpu1.op_class::FloatMemWrite                 0      0.00%    100.00% # Class of executed instruction
system.cpu1.op_class::IprAccess                     0      0.00%    100.00% # Class of executed instruction
system.cpu1.op_class::InstPrefetch                  0      0.00%    100.00% # Class of executed instruction
system.cpu1.op_class::total                        27                       # Class of executed instruction
system.cpu1.workload.numSyscalls                    0                       # Number of system calls
system.cpu2.Branches                                2                       # Number of branches fetched
system.cpu2.committedInsts                         16                       # Number of instructions committed
system.cpu2.committedOps                           28                       # Number of ops (including micro ops) committed
system.cpu2.idle_fraction                           0                       # Percentage of idle cycles
system.cpu2.l2bus.snoop_filter.hit_multi_requests            2                       # Number of requests hitting in the snoop filter with multiple (>1) holders of the requested data.
system.cpu2.l2bus.snoop_filter.hit_multi_snoops            0                       # Number of snoops hitting in the snoop filter with multiple (>1) holders of the requested data.
system.cpu2.l2bus.snoop_filter.hit_single_requests        40834                       # Number of requests hitting in the snoop filter with a single holder of the requested data.
system.cpu2.l2bus.snoop_filter.hit_single_snoops          555                       # Number of snoops hitting in the snoop filter with a single holder of the requested data.
system.cpu2.l2bus.snoop_filter.tot_requests        82455                       # Total number of requests made to the snoop filter.
system.cpu2.l2bus.snoop_filter.tot_snoops          555                       # Total number of snoops made to the snoop filter.
system.cpu2.mmucache.mmubus.snoop_filter.hit_multi_requests            0                       # Number of requests hitting in the snoop filter with multiple (>1) holders of the requested data.
system.cpu2.mmucache.mmubus.snoop_filter.hit_multi_snoops            0                       # Number of snoops hitting in the snoop filter with multiple (>1) holders of the requested data.
system.cpu2.mmucache.mmubus.snoop_filter.hit_single_requests            0                       # Number of requests hitting in the snoop filter with a single holder of the requested data.
system.cpu2.mmucache.mmubus.snoop_filter.hit_single_snoops            0                       # Number of snoops hitting in the snoop filter with a single holder of the requested data.
system.cpu2.mmucache.mmubus.snoop_filter.tot_requests            0                       # Total number of requests made to the snoop filter.
system.cpu2.mmucache.mmubus.snoop_filter.tot_snoops            0                       # Total number of snoops made to the snoop filter.
system.cpu2.not_idle_fraction                       1                       # Percentage of non-idle cycles
system.cpu2.numCycles                              31                       # number of cpu cycles simulated
system.cpu2.numWorkItemsCompleted                   0                       # number of work items this cpu completed
system.cpu2.numWorkItemsStarted                     0                       # number of work items this cpu started
system.cpu2.num_busy_cycles                        31                       # Number of busy cycles
system.cpu2.num_cc_register_reads                  10                       # number of times the CC registers were read
system.cpu2.num_cc_register_writes                 18                       # number of times the CC registers were written
system.cpu2.num_conditional_control_insts            2                       # number of instructions that are conditional controls
system.cpu2.num_fp_alu_accesses                     0                       # Number of float alu accesses
system.cpu2.num_fp_insts                            0                       # number of float instructions
system.cpu2.num_fp_register_reads                   0                       # number of times the floating registers were read
system.cpu2.num_fp_register_writes                  0                       # number of times the floating registers were written
system.cpu2.num_func_calls                          0                       # number of times a function call or return occured
system.cpu2.num_idle_cycles                         0                       # Number of idle cycles
system.cpu2.num_int_alu_accesses                   28                       # Number of integer alu accesses
system.cpu2.num_int_insts                          28                       # number of integer instructions
system.cpu2.num_int_register_reads                 54                       # number of times the integer registers were read
system.cpu2.num_int_register_writes                28                       # number of times the integer registers were written
system.cpu2.num_load_insts                          6                       # Number of load instructions
system.cpu2.num_mem_refs                            6                       # number of memory refs
system.cpu2.num_store_insts                         0                       # Number of store instructions
system.cpu2.num_vec_alu_accesses                    0                       # Number of vector alu accesses
system.cpu2.num_vec_insts                           0                       # number of vector instructions
system.cpu2.num_vec_register_reads                  0                       # number of times the vector registers were read
system.cpu2.num_vec_register_writes                 0                       # number of times the vector registers were written
system.cpu2.op_class::No_OpClass                    0      0.00%      0.00% # Class of executed instruction
system.cpu2.op_class::IntAlu                       20     71.43%     71.43% # Class of executed instruction
system.cpu2.op_class::IntMult                       2      7.14%     78.57% # Class of executed instruction
system.cpu2.op_class::IntDiv                        0      0.00%     78.57% # Class of executed instruction
system.cpu2.op_class::FloatAdd                      0      0.00%     78.57% # Class of executed instruction
system.cpu2.op_class::FloatCmp                      0      0.00%     78.57% # Class of executed instruction
system.cpu2.op_class::FloatCvt                      0      0.00%     78.57% # Class of executed instruction
system.cpu2.op_class::FloatMult                     0      0.00%     78.57% # Class of executed instruction
system.cpu2.op_class::FloatMultAcc                  0      0.00%     78.57% # Class of executed instruction
system.cpu2.op_class::FloatDiv                      0      0.00%     78.57% # Class of executed instruction
system.cpu2.op_class::FloatMisc                     0      0.00%     78.57% # Class of executed instruction
system.cpu2.op_class::FloatSqrt                     0      0.00%     78.57% # Class of executed instruction
system.cpu2.op_class::SimdAdd                       0      0.00%     78.57% # Class of executed instruction
system.cpu2.op_class::SimdAddAcc                    0      0.00%     78.57% # Class of executed instruction
system.cpu2.op_class::SimdAlu                       0      0.00%     78.57% # Class of executed instruction
system.cpu2.op_class::SimdCmp                       0      0.00%     78.57% # Class of executed instruction
system.cpu2.op_class::SimdCvt                       0      0.00%     78.57% # Class of executed instruction
system.cpu2.op_class::SimdMisc                      0      0.00%     78.57% # Class of executed instruction
system.cpu2.op_class::SimdMult                      0      0.00%     78.57% # Class of executed instruction
system.cpu2.op_class::SimdMultAcc                   0      0.00%     78.57% # Class of executed instruction
system.cpu2.op_class::SimdShift                     0      0.00%     78.57% # Class of executed instruction
system.cpu2.op_class::SimdShiftAcc                  0      0.00%     78.57% # Class of executed instruction
system.cpu2.op_class::SimdDiv                       0      0.00%     78.57% # Class of executed instruction
system.cpu2.op_class::SimdSqrt                      0      0.00%     78.57% # Class of executed instruction
system.cpu2.op_class::SimdFloatAdd                  0      0.00%     78.57% # Class of executed instruction
system.cpu2.op_class::SimdFloatAlu                  0      0.00%     78.57% # Class of executed instruction
system.cpu2.op_class::SimdFloatCmp                  0      0.00%     78.57% # Class of executed instruction
system.cpu2.op_class::SimdFloatCvt                  0      0.00%     78.57% # Class of executed instruction
system.cpu2.op_class::SimdFloatDiv                  0      0.00%     78.57% # Class of executed instruction
system.cpu2.op_class::SimdFloatMisc                 0      0.00%     78.57% # Class of executed instruction
system.cpu2.op_class::SimdFloatMult                 0      0.00%     78.57% # Class of executed instruction
system.cpu2.op_class::SimdFloatMultAcc              0      0.00%     78.57% # Class of executed instruction
system.cpu2.op_class::SimdFloatSqrt                 0      0.00%     78.57% # Class of executed instruction
system.cpu2.op_class::SimdReduceAdd                 0      0.00%     78.57% # Class of executed instruction
system.cpu2.op_class::SimdReduceAlu                 0      0.00%     78.57% # Class of executed instruction
system.cpu2.op_class::SimdReduceCmp                 0      0.00%     78.57% # Class of executed instruction
system.cpu2.op_class::SimdFloatReduceAdd            0      0.00%     78.57% # Class of executed instruction
system.cpu2.op_class::SimdFloatReduceCmp            0      0.00%     78.57% # Class of executed instruction
system.cpu2.op_class::SimdAes                       0      0.00%     78.57% # Class of executed instruction
system.cpu2.op_class::SimdAesMix                    0      0.00%     78.57% # Class of executed instruction
system.cpu2.op_class::SimdSha1Hash                  0      0.00%     78.57% # Class of executed instruction
system.cpu2.op_class::SimdSha1Hash2                 0      0.00%     78.57% # Class of executed instruction
system.cpu2.op_class::SimdSha256Hash                0      0.00%     78.57% # Class of executed instruction
system.cpu2.op_class::SimdSha256Hash2               0      0.00%     78.57% # Class of executed instruction
system.cpu2.op_class::SimdShaSigma2                 0      0.00%     78.57% # Class of executed instruction
system.cpu2.op_class::SimdShaSigma3                 0      0.00%     78.57% # Class of executed instruction
system.cpu2.op_class::SimdPredAlu                   0      0.00%     78.57% # Class of executed instruction
system.cpu2.op_class::MemRead                       6     21.43%    100.00% # Class of executed instruction
system.cpu2.op_class::MemWrite                      0      0.00%    100.00% # Class of executed instruction
system.cpu2.op_class::FloatMemRead                  0      0.00%    100.00% # Class of executed instruction
system.cpu2.op_class::FloatMemWrite                 0      0.00%    100.00% # Class of executed instruction
system.cpu2.op_class::IprAccess                     0      0.00%    100.00% # Class of executed instruction
system.cpu2.op_class::InstPrefetch                  0      0.00%    100.00% # Class of executed instruction
system.cpu2.op_class::total                        28                       # Class of executed instruction
system.cpu2.workload.numSyscalls                    0                       # Number of system calls
system.cpu3.Branches                                1                       # Number of branches fetched
system.cpu3.committedInsts                         14                       # Number of instructions committed
system.cpu3.committedOps                           23                       # Number of ops (including micro ops) committed
system.cpu3.idle_fraction                           0                       # Percentage of idle cycles
system.cpu3.l2bus.snoop_filter.hit_multi_requests            3                       # Number of requests hitting in the snoop filter with multiple (>1) holders of the requested data.
system.cpu3.l2bus.snoop_filter.hit_multi_snoops            0                       # Number of snoops hitting in the snoop filter with multiple (>1) holders of the requested data.
system.cpu3.l2bus.snoop_filter.hit_single_requests      1703987                       # Number of requests hitting in the snoop filter with a single holder of the requested data.
system.cpu3.l2bus.snoop_filter.hit_single_snoops         3055                       # Number of snoops hitting in the snoop filter with a single holder of the requested data.
system.cpu3.l2bus.snoop_filter.tot_requests      3324683                       # Total number of requests made to the snoop filter.
system.cpu3.l2bus.snoop_filter.tot_snoops         3055                       # Total number of snoops made to the snoop filter.
system.cpu3.mmucache.mmubus.snoop_filter.hit_multi_requests            0                       # Number of requests hitting in the snoop filter with multiple (>1) holders of the requested data.
system.cpu3.mmucache.mmubus.snoop_filter.hit_multi_snoops            0                       # Number of snoops hitting in the snoop filter with multiple (>1) holders of the requested data.
system.cpu3.mmucache.mmubus.snoop_filter.hit_single_requests            0                       # Number of requests hitting in the snoop filter with a single holder of the requested data.
system.cpu3.mmucache.mmubus.snoop_filter.hit_single_snoops            0                       # Number of snoops hitting in the snoop filter with a single holder of the requested data.
system.cpu3.mmucache.mmubus.snoop_filter.tot_requests            0                       # Total number of requests made to the snoop filter.
system.cpu3.mmucache.mmubus.snoop_filter.tot_snoops            0                       # Total number of snoops made to the snoop filter.
system.cpu3.not_idle_fraction                       1                       # Percentage of non-idle cycles
system.cpu3.numCycles                              30                       # number of cpu cycles simulated
system.cpu3.numWorkItemsCompleted                   0                       # number of work items this cpu completed
system.cpu3.numWorkItemsStarted                     0                       # number of work items this cpu started
system.cpu3.num_busy_cycles                        30                       # Number of busy cycles
system.cpu3.num_cc_register_reads                   5                       # number of times the CC registers were read
system.cpu3.num_cc_register_writes                  8                       # number of times the CC registers were written
system.cpu3.num_conditional_control_insts            1                       # number of instructions that are conditional controls
system.cpu3.num_fp_alu_accesses                    12                       # Number of float alu accesses
system.cpu3.num_fp_insts                           12                       # number of float instructions
system.cpu3.num_fp_register_reads                  21                       # number of times the floating registers were read
system.cpu3.num_fp_register_writes                 11                       # number of times the floating registers were written
system.cpu3.num_func_calls                          0                       # number of times a function call or return occured
system.cpu3.num_idle_cycles                         0                       # Number of idle cycles
system.cpu3.num_int_alu_accesses                   16                       # Number of integer alu accesses
system.cpu3.num_int_insts                          16                       # number of integer instructions
system.cpu3.num_int_register_reads                 33                       # number of times the integer registers were read
system.cpu3.num_int_register_writes                10                       # number of times the integer registers were written
system.cpu3.num_load_insts                          6                       # Number of load instructions
system.cpu3.num_mem_refs                            7                       # number of memory refs
system.cpu3.num_store_insts                         1                       # Number of store instructions
system.cpu3.num_vec_alu_accesses                    0                       # Number of vector alu accesses
system.cpu3.num_vec_insts                           0                       # number of vector instructions
system.cpu3.num_vec_register_reads                  0                       # number of times the vector registers were read
system.cpu3.num_vec_register_writes                 0                       # number of times the vector registers were written
system.cpu3.op_class::No_OpClass                    0      0.00%      0.00% # Class of executed instruction
system.cpu3.op_class::IntAlu                       10     43.48%     43.48% # Class of executed instruction
system.cpu3.op_class::IntMult                       0      0.00%     43.48% # Class of executed instruction
system.cpu3.op_class::IntDiv                        0      0.00%     43.48% # Class of executed instruction
system.cpu3.op_class::FloatAdd                      0      0.00%     43.48% # Class of executed instruction
system.cpu3.op_class::FloatCmp                      0      0.00%     43.48% # Class of executed instruction
system.cpu3.op_class::FloatCvt                      0      0.00%     43.48% # Class of executed instruction
system.cpu3.op_class::FloatMult                     0      0.00%     43.48% # Class of executed instruction
system.cpu3.op_class::FloatMultAcc                  0      0.00%     43.48% # Class of executed instruction
system.cpu3.op_class::FloatDiv                      0      0.00%     43.48% # Class of executed instruction
system.cpu3.op_class::FloatMisc                     0      0.00%     43.48% # Class of executed instruction
system.cpu3.op_class::FloatSqrt                     0      0.00%     43.48% # Class of executed instruction
system.cpu3.op_class::SimdAdd                       0      0.00%     43.48% # Class of executed instruction
system.cpu3.op_class::SimdAddAcc                    0      0.00%     43.48% # Class of executed instruction
system.cpu3.op_class::SimdAlu                       0      0.00%     43.48% # Class of executed instruction
system.cpu3.op_class::SimdCmp                       0      0.00%     43.48% # Class of executed instruction
system.cpu3.op_class::SimdCvt                       0      0.00%     43.48% # Class of executed instruction
system.cpu3.op_class::SimdMisc                      0      0.00%     43.48% # Class of executed instruction
system.cpu3.op_class::SimdMult                      0      0.00%     43.48% # Class of executed instruction
system.cpu3.op_class::SimdMultAcc                   0      0.00%     43.48% # Class of executed instruction
system.cpu3.op_class::SimdShift                     0      0.00%     43.48% # Class of executed instruction
system.cpu3.op_class::SimdShiftAcc                  0      0.00%     43.48% # Class of executed instruction
system.cpu3.op_class::SimdDiv                       0      0.00%     43.48% # Class of executed instruction
system.cpu3.op_class::SimdSqrt                      0      0.00%     43.48% # Class of executed instruction
system.cpu3.op_class::SimdFloatAdd                  4     17.39%     60.87% # Class of executed instruction
system.cpu3.op_class::SimdFloatAlu                  0      0.00%     60.87% # Class of executed instruction
system.cpu3.op_class::SimdFloatCmp                  0      0.00%     60.87% # Class of executed instruction
system.cpu3.op_class::SimdFloatCvt                  0      0.00%     60.87% # Class of executed instruction
system.cpu3.op_class::SimdFloatDiv                  0      0.00%     60.87% # Class of executed instruction
system.cpu3.op_class::SimdFloatMisc                 0      0.00%     60.87% # Class of executed instruction
system.cpu3.op_class::SimdFloatMult                 2      8.70%     69.57% # Class of executed instruction
system.cpu3.op_class::SimdFloatMultAcc              0      0.00%     69.57% # Class of executed instruction
system.cpu3.op_class::SimdFloatSqrt                 0      0.00%     69.57% # Class of executed instruction
system.cpu3.op_class::SimdReduceAdd                 0      0.00%     69.57% # Class of executed instruction
system.cpu3.op_class::SimdReduceAlu                 0      0.00%     69.57% # Class of executed instruction
system.cpu3.op_class::SimdReduceCmp                 0      0.00%     69.57% # Class of executed instruction
system.cpu3.op_class::SimdFloatReduceAdd            0      0.00%     69.57% # Class of executed instruction
system.cpu3.op_class::SimdFloatReduceCmp            0      0.00%     69.57% # Class of executed instruction
system.cpu3.op_class::SimdAes                       0      0.00%     69.57% # Class of executed instruction
system.cpu3.op_class::SimdAesMix                    0      0.00%     69.57% # Class of executed instruction
system.cpu3.op_class::SimdSha1Hash                  0      0.00%     69.57% # Class of executed instruction
system.cpu3.op_class::SimdSha1Hash2                 0      0.00%     69.57% # Class of executed instruction
system.cpu3.op_class::SimdSha256Hash                0      0.00%     69.57% # Class of executed instruction
system.cpu3.op_class::SimdSha256Hash2               0      0.00%     69.57% # Class of executed instruction
system.cpu3.op_class::SimdShaSigma2                 0      0.00%     69.57% # Class of executed instruction
system.cpu3.op_class::SimdShaSigma3                 0      0.00%     69.57% # Class of executed instruction
system.cpu3.op_class::SimdPredAlu                   0      0.00%     69.57% # Class of executed instruction
system.cpu3.op_class::MemRead                       2      8.70%     78.26% # Class of executed instruction
system.cpu3.op_class::MemWrite                      0      0.00%     78.26% # Class of executed instruction
system.cpu3.op_class::FloatMemRead                  4     17.39%     95.65% # Class of executed instruction
system.cpu3.op_class::FloatMemWrite                 1      4.35%    100.00% # Class of executed instruction
system.cpu3.op_class::IprAccess                     0      0.00%    100.00% # Class of executed instruction
system.cpu3.op_class::InstPrefetch                  0      0.00%    100.00% # Class of executed instruction
system.cpu3.op_class::total                        23                       # Class of executed instruction
system.cpu3.workload.numSyscalls                    0                       # Number of system calls
system.l3bus.snoop_filter.hit_multi_requests            0                       # Number of requests hitting in the snoop filter with multiple (>1) holders of the requested data.
system.l3bus.snoop_filter.hit_multi_snoops            0                       # Number of snoops hitting in the snoop filter with multiple (>1) holders of the requested data.
system.l3bus.snoop_filter.hit_single_requests      1283590                       # Number of requests hitting in the snoop filter with a single holder of the requested data.
system.l3bus.snoop_filter.hit_single_snoops            0                       # Number of snoops hitting in the snoop filter with a single holder of the requested data.
system.l3bus.snoop_filter.tot_requests        2581819                       # Total number of requests made to the snoop filter.
system.l3bus.snoop_filter.tot_snoops                0                       # Total number of snoops made to the snoop filter.
system.membus.snoop_filter.hit_multi_requests            0                       # Number of requests hitting in the snoop filter with multiple (>1) holders of the requested data.
system.membus.snoop_filter.hit_multi_snoops            0                       # Number of snoops hitting in the snoop filter with multiple (>1) holders of the requested data.
system.membus.snoop_filter.hit_single_requests       601993                       # Number of requests hitting in the snoop filter with a single holder of the requested data.
system.membus.snoop_filter.hit_single_snoops            0                       # Number of snoops hitting in the snoop filter with a single holder of the requested data.
system.membus.snoop_filter.tot_requests       1282231                       # Total number of requests made to the snoop filter.
system.membus.snoop_filter.tot_snoops               0                       # Total number of snoops made to the snoop filter.
system.switch_cpus0.cc_regfile_reads        167345481                       # number of cc regfile reads
system.switch_cpus0.cc_regfile_writes       113648074                       # number of cc regfile writes
system.switch_cpus0.committedInsts          126465300                       # Number of Instructions Simulated
system.switch_cpus0.committedOps            236202918                       # Number of Ops (including micro ops) Simulated
system.switch_cpus0.cpi                      0.945528                       # CPI: Cycles Per Instruction
system.switch_cpus0.cpi_total                0.945528                       # CPI: Total CPI of All Threads
system.switch_cpus0.fp_regfile_reads           852101                       # number of floating regfile reads
system.switch_cpus0.fp_regfile_writes          649822                       # number of floating regfile writes
system.switch_cpus0.idleCycles                  95140                       # Total number of cycles that the CPU has spent unscheduled due to idling
system.switch_cpus0.iew.branchMispredicts      2898315                       # Number of branch mispredicts detected at execute
system.switch_cpus0.iew.exec_branches        30437647                       # Number of branches executed
system.switch_cpus0.iew.exec_nop                    0                       # number of nop insts executed
system.switch_cpus0.iew.exec_rate            2.761690                       # Inst execution rate
system.switch_cpus0.iew.exec_refs            65969823                       # number of memory reference insts executed
system.switch_cpus0.iew.exec_stores          16276696                       # Number of stores executed
system.switch_cpus0.iew.exec_swp                    0                       # number of swp insts executed
system.switch_cpus0.iew.iewBlockCycles       20400447                       # Number of cycles IEW is blocking
system.switch_cpus0.iew.iewDispLoadInsts     61469159                       # Number of dispatched load instructions
system.switch_cpus0.iew.iewDispNonSpecInsts            3                       # Number of dispatched non-speculative instructions
system.switch_cpus0.iew.iewDispSquashedInsts        76221                       # Number of squashed instructions skipped by dispatch
system.switch_cpus0.iew.iewDispStoreInsts     20025233                       # Number of dispatched store instructions
system.switch_cpus0.iew.iewDispatchedInsts    401581213                       # Number of instructions dispatched to IQ
system.switch_cpus0.iew.iewExecLoadInsts     49693127                       # Number of load instructions executed
system.switch_cpus0.iew.iewExecSquashedInsts      5468459                       # Number of squashed instructions skipped in execute
system.switch_cpus0.iew.iewExecutedInsts    330233089                       # Number of executed instructions
system.switch_cpus0.iew.iewIQFullEvents          6398                       # Number of times the IQ has become full, causing a stall
system.switch_cpus0.iew.iewIdleCycles               0                       # Number of cycles IEW is idle
system.switch_cpus0.iew.iewLSQFullEvents        19351                       # Number of times the LSQ has become full, causing a stall
system.switch_cpus0.iew.iewSquashCycles       2569694                       # Number of cycles IEW is squashing
system.switch_cpus0.iew.iewUnblockCycles        27179                       # Number of cycles IEW is unblocking
system.switch_cpus0.iew.memOrderViolationEvents        19465                       # Number of memory order violations
system.switch_cpus0.iew.predictedNotTakenIncorrect      1602245                       # Number of branches that were predicted not taken incorrectly
system.switch_cpus0.iew.predictedTakenIncorrect      1296070                       # Number of branches that were predicted taken incorrectly
system.switch_cpus0.iew.wb_consumers        456598259                       # num instructions consuming a value
system.switch_cpus0.iew.wb_count            327878430                       # cumulative count of insts written-back
system.switch_cpus0.iew.wb_fanout            0.559765                       # average fanout of values written-back
system.switch_cpus0.iew.wb_producers        255587544                       # num instructions producing a value
system.switch_cpus0.iew.wb_rate              2.741998                       # insts written-back per cycle
system.switch_cpus0.iew.wb_sent             329614121                       # cumulative count of insts sent to commit
system.switch_cpus0.int_regfile_reads       511653940                       # number of integer regfile reads
system.switch_cpus0.int_regfile_writes      292919077                       # number of integer regfile writes
system.switch_cpus0.ipc                      1.057610                       # IPC: Instructions Per Cycle
system.switch_cpus0.ipc_total                1.057610                       # IPC: Total IPC of All Threads
system.switch_cpus0.iq.FU_type_0::No_OpClass      1786491      0.53%      0.53% # Type of FU issued
system.switch_cpus0.iq.FU_type_0::IntAlu    259040070     77.16%     77.70% # Type of FU issued
system.switch_cpus0.iq.FU_type_0::IntMult      1636673      0.49%     78.18% # Type of FU issued
system.switch_cpus0.iq.FU_type_0::IntDiv      4718297      1.41%     79.59% # Type of FU issued
system.switch_cpus0.iq.FU_type_0::FloatAdd        28362      0.01%     79.60% # Type of FU issued
system.switch_cpus0.iq.FU_type_0::FloatCmp            0      0.00%     79.60% # Type of FU issued
system.switch_cpus0.iq.FU_type_0::FloatCvt            0      0.00%     79.60% # Type of FU issued
system.switch_cpus0.iq.FU_type_0::FloatMult            0      0.00%     79.60% # Type of FU issued
system.switch_cpus0.iq.FU_type_0::FloatMultAcc            0      0.00%     79.60% # Type of FU issued
system.switch_cpus0.iq.FU_type_0::FloatDiv            0      0.00%     79.60% # Type of FU issued
system.switch_cpus0.iq.FU_type_0::FloatMisc            0      0.00%     79.60% # Type of FU issued
system.switch_cpus0.iq.FU_type_0::FloatSqrt            0      0.00%     79.60% # Type of FU issued
system.switch_cpus0.iq.FU_type_0::SimdAdd            0      0.00%     79.60% # Type of FU issued
system.switch_cpus0.iq.FU_type_0::SimdAddAcc            0      0.00%     79.60% # Type of FU issued
system.switch_cpus0.iq.FU_type_0::SimdAlu        26873      0.01%     79.61% # Type of FU issued
system.switch_cpus0.iq.FU_type_0::SimdCmp            0      0.00%     79.61% # Type of FU issued
system.switch_cpus0.iq.FU_type_0::SimdCvt            0      0.00%     79.61% # Type of FU issued
system.switch_cpus0.iq.FU_type_0::SimdMisc        58849      0.02%     79.62% # Type of FU issued
system.switch_cpus0.iq.FU_type_0::SimdMult            0      0.00%     79.62% # Type of FU issued
system.switch_cpus0.iq.FU_type_0::SimdMultAcc            0      0.00%     79.62% # Type of FU issued
system.switch_cpus0.iq.FU_type_0::SimdShift            0      0.00%     79.62% # Type of FU issued
system.switch_cpus0.iq.FU_type_0::SimdShiftAcc            0      0.00%     79.62% # Type of FU issued
system.switch_cpus0.iq.FU_type_0::SimdDiv            0      0.00%     79.62% # Type of FU issued
system.switch_cpus0.iq.FU_type_0::SimdSqrt            0      0.00%     79.62% # Type of FU issued
system.switch_cpus0.iq.FU_type_0::SimdFloatAdd        56000      0.02%     79.64% # Type of FU issued
system.switch_cpus0.iq.FU_type_0::SimdFloatAlu            0      0.00%     79.64% # Type of FU issued
system.switch_cpus0.iq.FU_type_0::SimdFloatCmp            0      0.00%     79.64% # Type of FU issued
system.switch_cpus0.iq.FU_type_0::SimdFloatCvt       125245      0.04%     79.68% # Type of FU issued
system.switch_cpus0.iq.FU_type_0::SimdFloatDiv         1468      0.00%     79.68% # Type of FU issued
system.switch_cpus0.iq.FU_type_0::SimdFloatMisc            0      0.00%     79.68% # Type of FU issued
system.switch_cpus0.iq.FU_type_0::SimdFloatMult            0      0.00%     79.68% # Type of FU issued
system.switch_cpus0.iq.FU_type_0::SimdFloatMultAcc            0      0.00%     79.68% # Type of FU issued
system.switch_cpus0.iq.FU_type_0::SimdFloatSqrt            0      0.00%     79.68% # Type of FU issued
system.switch_cpus0.iq.FU_type_0::SimdReduceAdd            0      0.00%     79.68% # Type of FU issued
system.switch_cpus0.iq.FU_type_0::SimdReduceAlu            0      0.00%     79.68% # Type of FU issued
system.switch_cpus0.iq.FU_type_0::SimdReduceCmp            0      0.00%     79.68% # Type of FU issued
system.switch_cpus0.iq.FU_type_0::SimdFloatReduceAdd            0      0.00%     79.68% # Type of FU issued
system.switch_cpus0.iq.FU_type_0::SimdFloatReduceCmp            0      0.00%     79.68% # Type of FU issued
system.switch_cpus0.iq.FU_type_0::SimdAes            0      0.00%     79.68% # Type of FU issued
system.switch_cpus0.iq.FU_type_0::SimdAesMix            0      0.00%     79.68% # Type of FU issued
system.switch_cpus0.iq.FU_type_0::SimdSha1Hash            0      0.00%     79.68% # Type of FU issued
system.switch_cpus0.iq.FU_type_0::SimdSha1Hash2            0      0.00%     79.68% # Type of FU issued
system.switch_cpus0.iq.FU_type_0::SimdSha256Hash            0      0.00%     79.68% # Type of FU issued
system.switch_cpus0.iq.FU_type_0::SimdSha256Hash2            0      0.00%     79.68% # Type of FU issued
system.switch_cpus0.iq.FU_type_0::SimdShaSigma2            0      0.00%     79.68% # Type of FU issued
system.switch_cpus0.iq.FU_type_0::SimdShaSigma3            0      0.00%     79.68% # Type of FU issued
system.switch_cpus0.iq.FU_type_0::SimdPredAlu            0      0.00%     79.68% # Type of FU issued
system.switch_cpus0.iq.FU_type_0::MemRead     51016195     15.20%     94.87% # Type of FU issued
system.switch_cpus0.iq.FU_type_0::MemWrite     16475201      4.91%     99.78% # Type of FU issued
system.switch_cpus0.iq.FU_type_0::FloatMemRead       431344      0.13%     99.91% # Type of FU issued
system.switch_cpus0.iq.FU_type_0::FloatMemWrite       300480      0.09%    100.00% # Type of FU issued
system.switch_cpus0.iq.FU_type_0::IprAccess            0      0.00%    100.00% # Type of FU issued
system.switch_cpus0.iq.FU_type_0::InstPrefetch            0      0.00%    100.00% # Type of FU issued
system.switch_cpus0.iq.FU_type_0::total     335701548                       # Type of FU issued
system.switch_cpus0.iq.fp_alu_accesses        1050029                       # Number of floating point alu accesses
system.switch_cpus0.iq.fp_inst_queue_reads      2090662                       # Number of floating instruction queue reads
system.switch_cpus0.iq.fp_inst_queue_wakeup_accesses      1008278                       # Number of floating instruction queue wakeup accesses
system.switch_cpus0.iq.fp_inst_queue_writes      1210058                       # Number of floating instruction queue writes
system.switch_cpus0.iq.fu_busy_cnt            5715817                       # FU busy when requested
system.switch_cpus0.iq.fu_busy_rate          0.017026                       # FU busy rate (busy events/executed inst)
system.switch_cpus0.iq.fu_full::No_OpClass            0      0.00%      0.00% # attempts to use FU when none available
system.switch_cpus0.iq.fu_full::IntAlu        4825712     84.43%     84.43% # attempts to use FU when none available
system.switch_cpus0.iq.fu_full::IntMult             0      0.00%     84.43% # attempts to use FU when none available
system.switch_cpus0.iq.fu_full::IntDiv              0      0.00%     84.43% # attempts to use FU when none available
system.switch_cpus0.iq.fu_full::FloatAdd            0      0.00%     84.43% # attempts to use FU when none available
system.switch_cpus0.iq.fu_full::FloatCmp            0      0.00%     84.43% # attempts to use FU when none available
system.switch_cpus0.iq.fu_full::FloatCvt            0      0.00%     84.43% # attempts to use FU when none available
system.switch_cpus0.iq.fu_full::FloatMult            0      0.00%     84.43% # attempts to use FU when none available
system.switch_cpus0.iq.fu_full::FloatMultAcc            0      0.00%     84.43% # attempts to use FU when none available
system.switch_cpus0.iq.fu_full::FloatDiv            0      0.00%     84.43% # attempts to use FU when none available
system.switch_cpus0.iq.fu_full::FloatMisc            0      0.00%     84.43% # attempts to use FU when none available
system.switch_cpus0.iq.fu_full::FloatSqrt            0      0.00%     84.43% # attempts to use FU when none available
system.switch_cpus0.iq.fu_full::SimdAdd             0      0.00%     84.43% # attempts to use FU when none available
system.switch_cpus0.iq.fu_full::SimdAddAcc            0      0.00%     84.43% # attempts to use FU when none available
system.switch_cpus0.iq.fu_full::SimdAlu             0      0.00%     84.43% # attempts to use FU when none available
system.switch_cpus0.iq.fu_full::SimdCmp             0      0.00%     84.43% # attempts to use FU when none available
system.switch_cpus0.iq.fu_full::SimdCvt             0      0.00%     84.43% # attempts to use FU when none available
system.switch_cpus0.iq.fu_full::SimdMisc            0      0.00%     84.43% # attempts to use FU when none available
system.switch_cpus0.iq.fu_full::SimdMult            0      0.00%     84.43% # attempts to use FU when none available
system.switch_cpus0.iq.fu_full::SimdMultAcc            0      0.00%     84.43% # attempts to use FU when none available
system.switch_cpus0.iq.fu_full::SimdShift            0      0.00%     84.43% # attempts to use FU when none available
system.switch_cpus0.iq.fu_full::SimdShiftAcc            0      0.00%     84.43% # attempts to use FU when none available
system.switch_cpus0.iq.fu_full::SimdDiv             0      0.00%     84.43% # attempts to use FU when none available
system.switch_cpus0.iq.fu_full::SimdSqrt            0      0.00%     84.43% # attempts to use FU when none available
system.switch_cpus0.iq.fu_full::SimdFloatAdd            0      0.00%     84.43% # attempts to use FU when none available
system.switch_cpus0.iq.fu_full::SimdFloatAlu            0      0.00%     84.43% # attempts to use FU when none available
system.switch_cpus0.iq.fu_full::SimdFloatCmp            0      0.00%     84.43% # attempts to use FU when none available
system.switch_cpus0.iq.fu_full::SimdFloatCvt            0      0.00%     84.43% # attempts to use FU when none available
system.switch_cpus0.iq.fu_full::SimdFloatDiv            0      0.00%     84.43% # attempts to use FU when none available
system.switch_cpus0.iq.fu_full::SimdFloatMisc            0      0.00%     84.43% # attempts to use FU when none available
system.switch_cpus0.iq.fu_full::SimdFloatMult            0      0.00%     84.43% # attempts to use FU when none available
system.switch_cpus0.iq.fu_full::SimdFloatMultAcc            0      0.00%     84.43% # attempts to use FU when none available
system.switch_cpus0.iq.fu_full::SimdFloatSqrt            0      0.00%     84.43% # attempts to use FU when none available
system.switch_cpus0.iq.fu_full::SimdReduceAdd            0      0.00%     84.43% # attempts to use FU when none available
system.switch_cpus0.iq.fu_full::SimdReduceAlu            0      0.00%     84.43% # attempts to use FU when none available
system.switch_cpus0.iq.fu_full::SimdReduceCmp            0      0.00%     84.43% # attempts to use FU when none available
system.switch_cpus0.iq.fu_full::SimdFloatReduceAdd            0      0.00%     84.43% # attempts to use FU when none available
system.switch_cpus0.iq.fu_full::SimdFloatReduceCmp            0      0.00%     84.43% # attempts to use FU when none available
system.switch_cpus0.iq.fu_full::SimdAes             0      0.00%     84.43% # attempts to use FU when none available
system.switch_cpus0.iq.fu_full::SimdAesMix            0      0.00%     84.43% # attempts to use FU when none available
system.switch_cpus0.iq.fu_full::SimdSha1Hash            0      0.00%     84.43% # attempts to use FU when none available
system.switch_cpus0.iq.fu_full::SimdSha1Hash2            0      0.00%     84.43% # attempts to use FU when none available
system.switch_cpus0.iq.fu_full::SimdSha256Hash            0      0.00%     84.43% # attempts to use FU when none available
system.switch_cpus0.iq.fu_full::SimdSha256Hash2            0      0.00%     84.43% # attempts to use FU when none available
system.switch_cpus0.iq.fu_full::SimdShaSigma2            0      0.00%     84.43% # attempts to use FU when none available
system.switch_cpus0.iq.fu_full::SimdShaSigma3            0      0.00%     84.43% # attempts to use FU when none available
system.switch_cpus0.iq.fu_full::SimdPredAlu            0      0.00%     84.43% # attempts to use FU when none available
system.switch_cpus0.iq.fu_full::MemRead        701934     12.28%     96.71% # attempts to use FU when none available
system.switch_cpus0.iq.fu_full::MemWrite       176673      3.09%     99.80% # attempts to use FU when none available
system.switch_cpus0.iq.fu_full::FloatMemRead         4690      0.08%     99.88% # attempts to use FU when none available
system.switch_cpus0.iq.fu_full::FloatMemWrite         6808      0.12%    100.00% # attempts to use FU when none available
system.switch_cpus0.iq.fu_full::IprAccess            0      0.00%    100.00% # attempts to use FU when none available
system.switch_cpus0.iq.fu_full::InstPrefetch            0      0.00%    100.00% # attempts to use FU when none available
system.switch_cpus0.iq.int_alu_accesses     338580845                       # Number of integer alu accesses
system.switch_cpus0.iq.int_inst_queue_reads    796118125                       # Number of integer instruction queue reads
system.switch_cpus0.iq.int_inst_queue_wakeup_accesses    326870152                       # Number of integer instruction queue wakeup accesses
system.switch_cpus0.iq.int_inst_queue_writes    565768126                       # Number of integer instruction queue writes
system.switch_cpus0.iq.iqInstsAdded         401581204                       # Number of instructions added to the IQ (excludes non-spec)
system.switch_cpus0.iq.iqInstsIssued        335701548                       # Number of instructions issued
system.switch_cpus0.iq.iqNonSpecInstsAdded            9                       # Number of non-speculative instructions added to the IQ
system.switch_cpus0.iq.iqSquashedInstsExamined    165378291                       # Number of squashed instructions iterated over during squash; mainly for profiling
system.switch_cpus0.iq.iqSquashedInstsIssued      1608563                       # Number of squashed instructions issued
system.switch_cpus0.iq.iqSquashedNonSpecRemoved            9                       # Number of squashed non-spec instructions that were removed
system.switch_cpus0.iq.iqSquashedOperandsExamined    242021594                       # Number of squashed operands that are examined and possibly removed from graph
system.switch_cpus0.iq.issued_per_cycle::samples    119481311                       # Number of insts issued each cycle
system.switch_cpus0.iq.issued_per_cycle::mean     2.809657                       # Number of insts issued each cycle
system.switch_cpus0.iq.issued_per_cycle::stdev     2.591206                       # Number of insts issued each cycle
system.switch_cpus0.iq.issued_per_cycle::underflows            0      0.00%      0.00% # Number of insts issued each cycle
system.switch_cpus0.iq.issued_per_cycle::0     36699496     30.72%     30.72% # Number of insts issued each cycle
system.switch_cpus0.iq.issued_per_cycle::1     12619502     10.56%     41.28% # Number of insts issued each cycle
system.switch_cpus0.iq.issued_per_cycle::2     11850994      9.92%     51.20% # Number of insts issued each cycle
system.switch_cpus0.iq.issued_per_cycle::3     11620502      9.73%     60.92% # Number of insts issued each cycle
system.switch_cpus0.iq.issued_per_cycle::4     11622344      9.73%     70.65% # Number of insts issued each cycle
system.switch_cpus0.iq.issued_per_cycle::5     11214042      9.39%     80.04% # Number of insts issued each cycle
system.switch_cpus0.iq.issued_per_cycle::6     10496344      8.78%     88.82% # Number of insts issued each cycle
system.switch_cpus0.iq.issued_per_cycle::7      7883794      6.60%     95.42% # Number of insts issued each cycle
system.switch_cpus0.iq.issued_per_cycle::8      5474293      4.58%    100.00% # Number of insts issued each cycle
system.switch_cpus0.iq.issued_per_cycle::overflows            0      0.00%    100.00% # Number of insts issued each cycle
system.switch_cpus0.iq.issued_per_cycle::min_value            0                       # Number of insts issued each cycle
system.switch_cpus0.iq.issued_per_cycle::max_value            8                       # Number of insts issued each cycle
system.switch_cpus0.iq.issued_per_cycle::total    119481311                       # Number of insts issued each cycle
system.switch_cpus0.iq.rate                  2.807422                       # Inst issue rate
system.switch_cpus0.iq.vec_alu_accesses             0                       # Number of vector alu accesses
system.switch_cpus0.iq.vec_inst_queue_reads            0                       # Number of vector instruction queue reads
system.switch_cpus0.iq.vec_inst_queue_wakeup_accesses            0                       # Number of vector instruction queue wakeup accesses
system.switch_cpus0.iq.vec_inst_queue_writes            0                       # Number of vector instruction queue writes
system.switch_cpus0.memDep0.conflictingLoads      3475528                       # Number of conflicting loads.
system.switch_cpus0.memDep0.conflictingStores      1965621                       # Number of conflicting stores.
system.switch_cpus0.memDep0.insertedLoads     61469159                       # Number of loads inserted to the mem dependence unit.
system.switch_cpus0.memDep0.insertedStores     20025233                       # Number of stores inserted to the mem dependence unit.
system.switch_cpus0.misc_regfile_reads      128795620                       # number of misc regfile reads
system.switch_cpus0.misc_regfile_writes             1                       # number of misc regfile writes
system.switch_cpus0.numCycles               119576451                       # number of cpu cycles simulated
system.switch_cpus0.numWorkItemsCompleted            0                       # number of work items this cpu completed
system.switch_cpus0.numWorkItemsStarted             0                       # number of work items this cpu started
system.switch_cpus0.timesIdled                    357                       # Number of times that the entire CPU went into an idle state and unscheduled itself
system.switch_cpus1.cc_regfile_reads        205899849                       # number of cc regfile reads
system.switch_cpus1.cc_regfile_writes       210974671                       # number of cc regfile writes
system.switch_cpus1.committedInsts          215837272                       # Number of Instructions Simulated
system.switch_cpus1.committedOps            422845994                       # Number of Ops (including micro ops) Simulated
system.switch_cpus1.cpi                      0.554012                       # CPI: Cycles Per Instruction
system.switch_cpus1.cpi_total                0.554012                       # CPI: Total CPI of All Threads
system.switch_cpus1.fp_regfile_reads             6894                       # number of floating regfile reads
system.switch_cpus1.fp_regfile_writes            6986                       # number of floating regfile writes
system.switch_cpus1.idleCycles                 233325                       # Total number of cycles that the CPU has spent unscheduled due to idling
system.switch_cpus1.iew.branchMispredicts      2451550                       # Number of branch mispredicts detected at execute
system.switch_cpus1.iew.exec_branches        40354026                       # Number of branches executed
system.switch_cpus1.iew.exec_nop                    0                       # number of nop insts executed
system.switch_cpus1.iew.exec_rate            4.208245                       # Inst execution rate
system.switch_cpus1.iew.exec_refs           146500456                       # number of memory reference insts executed
system.switch_cpus1.iew.exec_stores          39841495                       # Number of stores executed
system.switch_cpus1.iew.exec_swp                    0                       # number of swp insts executed
system.switch_cpus1.iew.iewBlockCycles       14596564                       # Number of cycles IEW is blocking
system.switch_cpus1.iew.iewDispLoadInsts    116084560                       # Number of dispatched load instructions
system.switch_cpus1.iew.iewDispNonSpecInsts            0                       # Number of dispatched non-speculative instructions
system.switch_cpus1.iew.iewDispSquashedInsts        10717                       # Number of squashed instructions skipped by dispatch
system.switch_cpus1.iew.iewDispStoreInsts     46408900                       # Number of dispatched store instructions
system.switch_cpus1.iew.iewDispatchedInsts    546877438                       # Number of instructions dispatched to IQ
system.switch_cpus1.iew.iewExecLoadInsts    106658961                       # Number of load instructions executed
system.switch_cpus1.iew.iewExecSquashedInsts      6779936                       # Number of squashed instructions skipped in execute
system.switch_cpus1.iew.iewExecutedInsts    503207026                       # Number of executed instructions
system.switch_cpus1.iew.iewIQFullEvents            42                       # Number of times the IQ has become full, causing a stall
system.switch_cpus1.iew.iewIdleCycles               0                       # Number of cycles IEW is idle
system.switch_cpus1.iew.iewLSQFullEvents         4162                       # Number of times the LSQ has become full, causing a stall
system.switch_cpus1.iew.iewSquashCycles       2000390                       # Number of cycles IEW is squashing
system.switch_cpus1.iew.iewUnblockCycles         4214                       # Number of cycles IEW is unblocking
system.switch_cpus1.iew.memOrderViolationEvents        34696                       # Number of memory order violations
system.switch_cpus1.iew.predictedNotTakenIncorrect      1220904                       # Number of branches that were predicted not taken incorrectly
system.switch_cpus1.iew.predictedTakenIncorrect      1230646                       # Number of branches that were predicted taken incorrectly
system.switch_cpus1.iew.wb_consumers        565056535                       # num instructions consuming a value
system.switch_cpus1.iew.wb_count            500073091                       # cumulative count of insts written-back
system.switch_cpus1.iew.wb_fanout            0.668553                       # average fanout of values written-back
system.switch_cpus1.iew.wb_producers        377770078                       # num instructions producing a value
system.switch_cpus1.iew.wb_rate              4.182037                       # insts written-back per cycle
system.switch_cpus1.iew.wb_sent             502163486                       # cumulative count of insts sent to commit
system.switch_cpus1.int_regfile_reads       727071799                       # number of integer regfile reads
system.switch_cpus1.int_regfile_writes      422072920                       # number of integer regfile writes
system.switch_cpus1.ipc                      1.805015                       # IPC: Instructions Per Cycle
system.switch_cpus1.ipc_total                1.805015                       # IPC: Total IPC of All Threads
system.switch_cpus1.iq.FU_type_0::No_OpClass      1111574      0.22%      0.22% # Type of FU issued
system.switch_cpus1.iq.FU_type_0::IntAlu    356075032     69.82%     70.04% # Type of FU issued
system.switch_cpus1.iq.FU_type_0::IntMult      3016969      0.59%     70.63% # Type of FU issued
system.switch_cpus1.iq.FU_type_0::IntDiv        32116      0.01%     70.64% # Type of FU issued
system.switch_cpus1.iq.FU_type_0::FloatAdd            0      0.00%     70.64% # Type of FU issued
system.switch_cpus1.iq.FU_type_0::FloatCmp            0      0.00%     70.64% # Type of FU issued
system.switch_cpus1.iq.FU_type_0::FloatCvt            0      0.00%     70.64% # Type of FU issued
system.switch_cpus1.iq.FU_type_0::FloatMult            0      0.00%     70.64% # Type of FU issued
system.switch_cpus1.iq.FU_type_0::FloatMultAcc            0      0.00%     70.64% # Type of FU issued
system.switch_cpus1.iq.FU_type_0::FloatDiv            0      0.00%     70.64% # Type of FU issued
system.switch_cpus1.iq.FU_type_0::FloatMisc            0      0.00%     70.64% # Type of FU issued
system.switch_cpus1.iq.FU_type_0::FloatSqrt            0      0.00%     70.64% # Type of FU issued
system.switch_cpus1.iq.FU_type_0::SimdAdd            0      0.00%     70.64% # Type of FU issued
system.switch_cpus1.iq.FU_type_0::SimdAddAcc            0      0.00%     70.64% # Type of FU issued
system.switch_cpus1.iq.FU_type_0::SimdAlu            0      0.00%     70.64% # Type of FU issued
system.switch_cpus1.iq.FU_type_0::SimdCmp            0      0.00%     70.64% # Type of FU issued
system.switch_cpus1.iq.FU_type_0::SimdCvt            0      0.00%     70.64% # Type of FU issued
system.switch_cpus1.iq.FU_type_0::SimdMisc            0      0.00%     70.64% # Type of FU issued
system.switch_cpus1.iq.FU_type_0::SimdMult            0      0.00%     70.64% # Type of FU issued
system.switch_cpus1.iq.FU_type_0::SimdMultAcc            0      0.00%     70.64% # Type of FU issued
system.switch_cpus1.iq.FU_type_0::SimdShift            0      0.00%     70.64% # Type of FU issued
system.switch_cpus1.iq.FU_type_0::SimdShiftAcc            0      0.00%     70.64% # Type of FU issued
system.switch_cpus1.iq.FU_type_0::SimdDiv            0      0.00%     70.64% # Type of FU issued
system.switch_cpus1.iq.FU_type_0::SimdSqrt            0      0.00%     70.64% # Type of FU issued
system.switch_cpus1.iq.FU_type_0::SimdFloatAdd            0      0.00%     70.64% # Type of FU issued
system.switch_cpus1.iq.FU_type_0::SimdFloatAlu            0      0.00%     70.64% # Type of FU issued
system.switch_cpus1.iq.FU_type_0::SimdFloatCmp            0      0.00%     70.64% # Type of FU issued
system.switch_cpus1.iq.FU_type_0::SimdFloatCvt            0      0.00%     70.64% # Type of FU issued
system.switch_cpus1.iq.FU_type_0::SimdFloatDiv            0      0.00%     70.64% # Type of FU issued
system.switch_cpus1.iq.FU_type_0::SimdFloatMisc            0      0.00%     70.64% # Type of FU issued
system.switch_cpus1.iq.FU_type_0::SimdFloatMult            0      0.00%     70.64% # Type of FU issued
system.switch_cpus1.iq.FU_type_0::SimdFloatMultAcc            0      0.00%     70.64% # Type of FU issued
system.switch_cpus1.iq.FU_type_0::SimdFloatSqrt            0      0.00%     70.64% # Type of FU issued
system.switch_cpus1.iq.FU_type_0::SimdReduceAdd            0      0.00%     70.64% # Type of FU issued
system.switch_cpus1.iq.FU_type_0::SimdReduceAlu            0      0.00%     70.64% # Type of FU issued
system.switch_cpus1.iq.FU_type_0::SimdReduceCmp            0      0.00%     70.64% # Type of FU issued
system.switch_cpus1.iq.FU_type_0::SimdFloatReduceAdd            0      0.00%     70.64% # Type of FU issued
system.switch_cpus1.iq.FU_type_0::SimdFloatReduceCmp            0      0.00%     70.64% # Type of FU issued
[...]
system.switch_cpus3.commit.numCommittedDist::stdev     3.094823                       # Number of insts commited each cycle
system.switch_cpus3.commit.numCommittedDist::underflows            0      0.00%      0.00% # Number of insts commited each cycle
system.switch_cpus3.commit.numCommittedDist::0     82462924     69.02%     69.02% # Number of insts commited each cycle
system.switch_cpus3.commit.numCommittedDist::1      6340772      5.31%     74.32% # Number of insts commited each cycle
system.switch_cpus3.commit.numCommittedDist::2      2282185      1.91%     76.23% # Number of insts commited each cycle
system.switch_cpus3.commit.numCommittedDist::3      2765190      2.31%     78.55% # Number of insts commited each cycle
system.switch_cpus3.commit.numCommittedDist::4      1993686      1.67%     80.22% # Number of insts commited each cycle
system.switch_cpus3.commit.numCommittedDist::5       882283      0.74%     80.95% # Number of insts commited each cycle
system.switch_cpus3.commit.numCommittedDist::6       418194      0.35%     81.30% # Number of insts commited each cycle
system.switch_cpus3.commit.numCommittedDist::7      1362741      1.14%     82.44% # Number of insts commited each cycle
system.switch_cpus3.commit.numCommittedDist::8     20975352     17.56%    100.00% # Number of insts commited each cycle
system.switch_cpus3.commit.numCommittedDist::overflows            0      0.00%    100.00% # Number of insts commited each cycle
system.switch_cpus3.commit.numCommittedDist::min_value            0                       # Number of insts commited each cycle
system.switch_cpus3.commit.numCommittedDist::max_value            8                       # Number of insts commited each cycle
system.switch_cpus3.commit.numCommittedDist::total    119483327                       # Number of insts commited each cycle
system.switch_cpus3.commit.instsCommitted    128373499                       # Number of instructions committed
system.switch_cpus3.commit.opsCommitted     211438038                       # Number of ops (including micro ops) committed
system.switch_cpus3.commit.memRefs           47350600                       # Number of memory references committed
system.switch_cpus3.commit.loads             33359086                       # Number of loads committed
system.switch_cpus3.commit.amos                     0                       # Number of atomic instructions committed
system.switch_cpus3.commit.membars                  0                       # Number of memory barriers committed
system.switch_cpus3.commit.branches          15735319                       # Number of branches committed
system.switch_cpus3.commit.vector                   0                       # Number of committed Vector instructions.
system.switch_cpus3.commit.floating          90583543                       # Number of committed floating point instructions.
system.switch_cpus3.commit.integer          151722824                       # Number of committed integer instructions.
system.switch_cpus3.commit.functionCalls      1180161                       # Number of function calls committed.
system.switch_cpus3.commit.committedInstType_0::No_OpClass         8833      0.00%      0.00% # Class of committed instruction
system.switch_cpus3.commit.committedInstType_0::IntAlu    118473912     56.03%     56.04% # Class of committed instruction
system.switch_cpus3.commit.committedInstType_0::IntMult         3743      0.00%     56.04% # Class of committed instruction
system.switch_cpus3.commit.committedInstType_0::IntDiv            0      0.00%     56.04% # Class of committed instruction
system.switch_cpus3.commit.committedInstType_0::FloatAdd      4423979      2.09%     58.13% # Class of committed instruction
system.switch_cpus3.commit.committedInstType_0::FloatCmp            0      0.00%     58.13% # Class of committed instruction
system.switch_cpus3.commit.committedInstType_0::FloatCvt            0      0.00%     58.13% # Class of committed instruction
system.switch_cpus3.commit.committedInstType_0::FloatMult            0      0.00%     58.13% # Class of committed instruction
system.switch_cpus3.commit.committedInstType_0::FloatMultAcc            0      0.00%     58.13% # Class of committed instruction
system.switch_cpus3.commit.committedInstType_0::FloatDiv            0      0.00%     58.13% # Class of committed instruction
system.switch_cpus3.commit.committedInstType_0::FloatMisc            0      0.00%     58.13% # Class of committed instruction
system.switch_cpus3.commit.committedInstType_0::FloatSqrt            0      0.00%     58.13% # Class of committed instruction
system.switch_cpus3.commit.committedInstType_0::SimdAdd            0      0.00%     58.13% # Class of committed instruction
system.switch_cpus3.commit.committedInstType_0::SimdAddAcc            0      0.00%     58.13% # Class of committed instruction
system.switch_cpus3.commit.committedInstType_0::SimdAlu      4869422      2.30%     60.43% # Class of committed instruction
system.switch_cpus3.commit.committedInstType_0::SimdCmp            0      0.00%     60.43% # Class of committed instruction
system.switch_cpus3.commit.committedInstType_0::SimdCvt            0      0.00%     60.43% # Class of committed instruction
system.switch_cpus3.commit.committedInstType_0::SimdMisc      2656287      1.26%     61.69% # Class of committed instruction
system.switch_cpus3.commit.committedInstType_0::SimdMult            0      0.00%     61.69% # Class of committed instruction
system.switch_cpus3.commit.committedInstType_0::SimdMultAcc            0      0.00%     61.69% # Class of committed instruction
system.switch_cpus3.commit.committedInstType_0::SimdShift            0      0.00%     61.69% # Class of committed instruction
system.switch_cpus3.commit.committedInstType_0::SimdShiftAcc            0      0.00%     61.69% # Class of committed instruction
system.switch_cpus3.commit.committedInstType_0::SimdDiv            0      0.00%     61.69% # Class of committed instruction
system.switch_cpus3.commit.committedInstType_0::SimdSqrt            0      0.00%     61.69% # Class of committed instruction
system.switch_cpus3.commit.committedInstType_0::SimdFloatAdd     13816256      6.53%     68.22% # Class of committed instruction
system.switch_cpus3.commit.committedInstType_0::SimdFloatAlu            0      0.00%     68.22% # Class of committed instruction
system.switch_cpus3.commit.committedInstType_0::SimdFloatCmp       376832      0.18%     68.40% # Class of committed instruction
system.switch_cpus3.commit.committedInstType_0::SimdFloatCvt      3194880      1.51%     69.91% # Class of committed instruction
system.switch_cpus3.commit.committedInstType_0::SimdFloatDiv      2604023      1.23%     71.15% # Class of committed instruction
system.switch_cpus3.commit.committedInstType_0::SimdFloatMisc            0      0.00%     71.15% # Class of committed instruction
system.switch_cpus3.commit.committedInstType_0::SimdFloatMult     13249669      6.27%     77.41% # Class of committed instruction
system.switch_cpus3.commit.committedInstType_0::SimdFloatMultAcc            0      0.00%     77.41% # Class of committed instruction
system.switch_cpus3.commit.committedInstType_0::SimdFloatSqrt       409602      0.19%     77.61% # Class of committed instruction
system.switch_cpus3.commit.committedInstType_0::SimdReduceAdd            0      0.00%     77.61% # Class of committed instruction
system.switch_cpus3.commit.committedInstType_0::SimdReduceAlu            0      0.00%     77.61% # Class of committed instruction
system.switch_cpus3.commit.committedInstType_0::SimdReduceCmp            0      0.00%     77.61% # Class of committed instruction
system.switch_cpus3.commit.committedInstType_0::SimdFloatReduceAdd            0      0.00%     77.61% # Class of committed instruction
system.switch_cpus3.commit.committedInstType_0::SimdFloatReduceCmp            0      0.00%     77.61% # Class of committed instruction
system.switch_cpus3.commit.committedInstType_0::SimdAes            0      0.00%     77.61% # Class of committed instruction
system.switch_cpus3.commit.committedInstType_0::SimdAesMix            0      0.00%     77.61% # Class of committed instruction
system.switch_cpus3.commit.committedInstType_0::SimdSha1Hash            0      0.00%     77.61% # Class of committed instruction
system.switch_cpus3.commit.committedInstType_0::SimdSha1Hash2            0      0.00%     77.61% # Class of committed instruction
system.switch_cpus3.commit.committedInstType_0::SimdSha256Hash            0      0.00%     77.61% # Class of committed instruction
system.switch_cpus3.commit.committedInstType_0::SimdSha256Hash2            0      0.00%     77.61% # Class of committed instruction
system.switch_cpus3.commit.committedInstType_0::SimdShaSigma2            0      0.00%     77.61% # Class of committed instruction
system.switch_cpus3.commit.committedInstType_0::SimdShaSigma3            0      0.00%     77.61% # Class of committed instruction
system.switch_cpus3.commit.committedInstType_0::SimdPredAlu            0      0.00%     77.61% # Class of committed instruction
system.switch_cpus3.commit.committedInstType_0::MemRead     12854659      6.08%     83.69% # Class of committed instruction
system.switch_cpus3.commit.committedInstType_0::MemWrite      6272057      2.97%     86.65% # Class of committed instruction
system.switch_cpus3.commit.committedInstType_0::FloatMemRead     20504427      9.70%     96.35% # Class of committed instruction
system.switch_cpus3.commit.committedInstType_0::FloatMemWrite      7719457      3.65%    100.00% # Class of committed instruction
system.switch_cpus3.commit.committedInstType_0::IprAccess            0      0.00%    100.00% # Class of committed instruction
system.switch_cpus3.commit.committedInstType_0::InstPrefetch            0      0.00%    100.00% # Class of committed instruction
system.switch_cpus3.commit.committedInstType_0::total    211438038                       # Class of committed instruction
system.switch_cpus3.commit.commitEligibleSamples     20975352                       # number cycles where commit BW limit reached
system.switch_cpus3.decode.idleCycles         2149350                       # Number of cycles decode is idle
system.switch_cpus3.decode.blockedCycles     85675376                       # Number of cycles decode is blocked
system.switch_cpus3.decode.runCycles         29093320                       # Number of cycles decode is running
system.switch_cpus3.decode.unblockCycles      2600998                       # Number of cycles decode is unblocking
system.switch_cpus3.decode.squashCycles         11897                       # Number of cycles decode is squashing
system.switch_cpus3.decode.branchResolved      6142756                       # Number of times decode resolved a  branch
system.switch_cpus3.decode.branchMispred          107                       # Number of times decode detected a branch misprediction
system.switch_cpus3.decode.decodedInsts     211937252                       # Number of instructions handled by decode
system.switch_cpus3.decode.squashedInsts          535                       # Number of squashed instructions handled by decode
system.switch_cpus3.dtb.rdAccesses           33416099                       # TLB accesses on read requests
system.switch_cpus3.dtb.wrAccesses           13999692                       # TLB accesses on write requests
system.switch_cpus3.dtb.rdMisses                36996                       # TLB misses on read requests
system.switch_cpus3.dtb.wrMisses                 7219                       # TLB misses on write requests
system.switch_cpus3.dtb.walker.power_state.pwrStateResidencyTicks::UNDEFINED 15691076045838                       # Cumulative time (in ticks) in various power states
system.switch_cpus3.fetch.icacheStallCycles        38235                       # Number of cycles fetch is stalled on an Icache miss
system.switch_cpus3.fetch.insts             128918653                       # Number of instructions fetch has processed
system.switch_cpus3.fetch.branches           15776106                       # Number of branches that fetch encountered
system.switch_cpus3.fetch.predictedBranches      8813524                       # Number of branches that fetch has predicted taken
system.switch_cpus3.fetch.cycles            119480715                       # Number of cycles fetch has run and was not squashing or blocked
system.switch_cpus3.fetch.squashCycles          24004                       # Number of cycles fetch has spent squashing
system.switch_cpus3.fetch.cacheLines         16146274                       # Number of cache lines fetched
system.switch_cpus3.fetch.icacheSquashes          176                       # Number of outstanding Icache misses that were squashed
system.switch_cpus3.fetch.nisnDist::samples    119530952                       # Number of instructions fetched each cycle (Total)
system.switch_cpus3.fetch.nisnDist::mean     1.775243                       # Number of instructions fetched each cycle (Total)
system.switch_cpus3.fetch.nisnDist::stdev     3.103353                       # Number of instructions fetched each cycle (Total)
system.switch_cpus3.fetch.nisnDist::underflows            0      0.00%      0.00% # Number of instructions fetched each cycle (Total)
system.switch_cpus3.fetch.nisnDist::0        84499424     70.69%     70.69% # Number of instructions fetched each cycle (Total)
system.switch_cpus3.fetch.nisnDist::1         3874960      3.24%     73.93% # Number of instructions fetched each cycle (Total)
system.switch_cpus3.fetch.nisnDist::2         1170191      0.98%     74.91% # Number of instructions fetched each cycle (Total)
system.switch_cpus3.fetch.nisnDist::3         4191544      3.51%     78.42% # Number of instructions fetched each cycle (Total)
system.switch_cpus3.fetch.nisnDist::4         1017963      0.85%     79.27% # Number of instructions fetched each cycle (Total)
system.switch_cpus3.fetch.nisnDist::5         1742228      1.46%     80.73% # Number of instructions fetched each cycle (Total)
system.switch_cpus3.fetch.nisnDist::6         1171940      0.98%     81.71% # Number of instructions fetched each cycle (Total)
system.switch_cpus3.fetch.nisnDist::7         1309789      1.10%     82.81% # Number of instructions fetched each cycle (Total)
system.switch_cpus3.fetch.nisnDist::8        20552913     17.19%    100.00% # Number of instructions fetched each cycle (Total)
system.switch_cpus3.fetch.nisnDist::overflows            0      0.00%    100.00% # Number of instructions fetched each cycle (Total)
system.switch_cpus3.fetch.nisnDist::min_value            0                       # Number of instructions fetched each cycle (Total)
system.switch_cpus3.fetch.nisnDist::max_value            8                       # Number of instructions fetched each cycle (Total)
system.switch_cpus3.fetch.nisnDist::total    119530952                       # Number of instructions fetched each cycle (Total)
system.switch_cpus3.fetch.branchRate         0.131933                       # Number of branch fetches per cycle
system.switch_cpus3.fetch.rate               1.078127                       # Number of inst fetches per cycle
system.switch_cpus3.itb.rdAccesses                  0                       # TLB accesses on read requests
system.switch_cpus3.itb.wrAccesses           16146274                       # TLB accesses on write requests
system.switch_cpus3.itb.rdMisses                    0                       # TLB misses on read requests
system.switch_cpus3.itb.wrMisses                   21                       # TLB misses on write requests
system.switch_cpus3.itb.walker.power_state.pwrStateResidencyTicks::UNDEFINED 15691076045838                       # Cumulative time (in ticks) in various power states
system.switch_cpus3.lsq0.forwLoads            2414676                       # Number of loads that had data forwarded from stores
system.switch_cpus3.lsq0.squashedLoads          80331                       # Number of loads squashed
system.switch_cpus3.lsq0.ignoredResponses           37                       # Number of memory responses ignored because the instruction is squashed
system.switch_cpus3.lsq0.memOrderViolation          808                       # Number of memory ordering violations
system.switch_cpus3.lsq0.squashedStores         33753                       # Number of stores squashed
system.switch_cpus3.lsq0.rescheduledLoads            0                       # Number of loads that were rescheduled
system.switch_cpus3.lsq0.blockedByCache             4                       # Number of times an access to memory failed due to the cache being blocked
system.switch_cpus3.power_state.pwrStateResidencyTicks::OFF  39818968506                       # Cumulative time (in ticks) in various power states
system.switch_cpus3.rename.squashCycles         11897                       # Number of cycles rename is squashing
system.switch_cpus3.rename.idleCycles         3283107                       # Number of cycles rename is idle
system.switch_cpus3.rename.blockCycles       34909519                       # Number of cycles rename is blocking
system.switch_cpus3.rename.serializeStallCycles            0                       # count of cycles rename stalledfor serializing inst
system.switch_cpus3.rename.runCycles         30504698                       # Number of cycles rename is running
system.switch_cpus3.rename.unblockCycles     50821720                       # Number of cycles rename is unblocking
system.switch_cpus3.rename.renamedInsts     211854160                       # Number of instructions processed by rename
system.switch_cpus3.rename.ROBFullEvents      1182073                       # Number of times rename has blocked due to ROB full
system.switch_cpus3.rename.IQFullEvents       3085401                       # Number of times rename has blocked due to IQ full
system.switch_cpus3.rename.LQFullEvents      18684355                       # Number of times rename has blocked due to LQ full
system.switch_cpus3.rename.SQFullEvents      29371776                       # Number of times rename has blocked due to SQ full
system.switch_cpus3.rename.renamedOperands    233030180                       # Number of destination operands rename has renamed
system.switch_cpus3.rename.lookups          515563241                       # Number of register rename lookups that rename has made
system.switch_cpus3.rename.intLookups       208490582                       # Number of integer rename lookups
system.switch_cpus3.rename.fpLookups        151259098                       # Number of floating rename lookups
system.switch_cpus3.rename.committedMaps    232563686                       # Number of HB maps that are committed
system.switch_cpus3.rename.undoneMaps          466354                       # Number of HB maps that are undone due to squashing
system.switch_cpus3.rename.serializing              0                       # count of serializing insts renamed
system.switch_cpus3.rename.tempSerializing            0                       # count of temporary serializing insts renamed
system.switch_cpus3.rename.skidInsts         13955872                       # count of insts added to the skid buffer
system.switch_cpus3.rob.reads               310276230                       # The number of ROB reads
system.switch_cpus3.rob.writes              423584339                       # The number of ROB writes
system.switch_cpus3.thread0.numInsts        128373499                       # Number of Instructions committed
system.switch_cpus3.thread0.numOps          211438038                       # Number of Ops committed
system.switch_cpus3.thread0.numMemRefs              0                       # Number of Memory References
system.voltage_domain.voltage                       1                       # Voltage in Volts

---------- End Simulation Statistics   ----------
