Command line:
./runscript_pride.sh wrf RFM10.BR2.4C 4 2017 --rh_defense --rh_mitigation=RFM --rh_rfm_per_trefi=10 --rh_rfm_blast_radius=2 --rh_rfm_maxacts_per_trefi=79
Global frequency set at 1000000000000 ticks per second
RFM details - rfm_act_threshold: 7, blast_radius: 2, delay_per_rfm: 175000 ps. sample_rate: 0.125000
RH Defense config: RFM, Bus Delay: 0, rfms_per_trefi: 10, rfm_act_threshold: 7, blast_radius: 2,rfm_delay_per_act: 45000 ps.
DRAM config: RowsPerBank: 65536, BanksPerRank: 32, RanksPerChannel: 1
warn: Sockets disabled, not accepting gdb connections
warn: CoherentXBar system.cpu0.mmucache.mmubus has no snooping ports attached!
warn: CoherentXBar system.cpu1.mmucache.mmubus has no snooping ports attached!
warn: CoherentXBar system.cpu2.mmucache.mmubus has no snooping ports attached!
warn: CoherentXBar system.cpu3.mmucache.mmubus has no snooping ports attached!
warn: Checkpoints for file descriptors currently do not work.
warn: Checkpoints for file descriptors currently do not work.
warn: Checkpoints for file descriptors currently do not work.
warn: Checkpoints for file descriptors currently do not work.
gem5 Simulator System.  http://gem5.org
gem5 is copyrighted software; use the --copyright option for details.

gem5 version 20.1.0.5
gem5 compiled Jul 12 2024 12:42:38
gem5 started Aug  1 2024 18:52:15
gem5 executing on a07dda8b130c, pid 251275
command line: /home/user/PrIDE/performance/gem5/build/X86/gem5.opt --outdir=/home/user/PrIDE/performance/gem5/stats/pride_multiprogram_16GBmem_250Mn.SPEC2017.C4/RFM10.BR2.4C/wrf /home/user/PrIDE/performance/gem5/configs/example/se_rq_spec_config_multicore.py --redirects /lib64=/home/utils/gcc-6.2.0/lib64 --benchmark=wrf --benchmark_stdout=/home/user/PrIDE/performance/gem5/stats/pride_multiprogram_16GBmem_250Mn.SPEC2017.C4/RFM10.BR2.4C/wrf/wrf.out --benchmark_stderr=/home/user/PrIDE/performance/gem5/stats/pride_multiprogram_16GBmem_250Mn.SPEC2017.C4/RFM10.BR2.4C/wrf/wrf.err --spec-version=2017 --rh_defense --rh_mitigation=RFM --rh_rfm_per_trefi=10 --rh_rfm_blast_radius=2 --rh_rfm_maxacts_per_trefi=79 --num-cpus=4 --mem-size=16GB --mem-type=DDR5_2400_32x4 --mem-ranks=1 --mem-channels=1 --checkpoint-dir=/home/user/PrIDE/performance/gem5/cpts-DDR5/multiprogram_16GBmem_25Bn.SPEC2017.C4/wrf-1-ref-x86 --checkpoint-restore=25000000000 --at-instruction --cpu-type DerivO3CPU --caches --l2cache --l1d_size=32kB --l1i_size=32kB --l2_size=256kB --l3_size=4MB --l1d_assoc=8 --l1i_assoc=8 --l2_assoc=16 --l3_assoc=16 --cpu-clock=3GHz --sys-clock=3GHz --maxinsts=250000000 --prog-interval=300Hz

info: Standard input is not a terminal, disabling listeners.
Benchmark- 0   wrf
Selected benchmark
--> wrf
CMD: ['/opt/spec2017/benchspec/CPU/521.wrf_r/run/run_base_refrate_gem5_se-m64.0000/wrf_r_base.gem5_se-m64']
CWD: /opt/spec2017/benchspec/CPU/521.wrf_r/run/run_base_refrate_gem5_se-m64.0000/
Process stdout file: /home/user/PrIDE/performance/gem5/stats/pride_multiprogram_16GBmem_250Mn.SPEC2017.C4/RFM10.BR2.4C/wrf/wrf.out_0
Process stderr file: /home/user/PrIDE/performance/gem5/stats/pride_multiprogram_16GBmem_250Mn.SPEC2017.C4/RFM10.BR2.4C/wrf/wrf.err_0
Benchmark- 1   wrf
Selected benchmark
--> wrf
CMD: ['/opt/spec2017/benchspec/CPU/521.wrf_r/run/run_base_refrate_gem5_se-m64.0000/wrf_r_base.gem5_se-m64']
CWD: /opt/spec2017/benchspec/CPU/521.wrf_r/run/run_base_refrate_gem5_se-m64.0000/
Process stdout file: /home/user/PrIDE/performance/gem5/stats/pride_multiprogram_16GBmem_250Mn.SPEC2017.C4/RFM10.BR2.4C/wrf/wrf.out_1
Process stderr file: /home/user/PrIDE/performance/gem5/stats/pride_multiprogram_16GBmem_250Mn.SPEC2017.C4/RFM10.BR2.4C/wrf/wrf.err_1
Benchmark- 2   wrf
Selected benchmark
--> wrf
CMD: ['/opt/spec2017/benchspec/CPU/521.wrf_r/run/run_base_refrate_gem5_se-m64.0000/wrf_r_base.gem5_se-m64']
CWD: /opt/spec2017/benchspec/CPU/521.wrf_r/run/run_base_refrate_gem5_se-m64.0000/
Process stdout file: /home/user/PrIDE/performance/gem5/stats/pride_multiprogram_16GBmem_250Mn.SPEC2017.C4/RFM10.BR2.4C/wrf/wrf.out_2
Process stderr file: /home/user/PrIDE/performance/gem5/stats/pride_multiprogram_16GBmem_250Mn.SPEC2017.C4/RFM10.BR2.4C/wrf/wrf.err_2
Benchmark- 3   wrf
Selected benchmark
--> wrf
CMD: ['/opt/spec2017/benchspec/CPU/521.wrf_r/run/run_base_refrate_gem5_se-m64.0000/wrf_r_base.gem5_se-m64']
CWD: /opt/spec2017/benchspec/CPU/521.wrf_r/run/run_base_refrate_gem5_se-m64.0000/
Process stdout file: /home/user/PrIDE/performance/gem5/stats/pride_multiprogram_16GBmem_250Mn.SPEC2017.C4/RFM10.BR2.4C/wrf/wrf.out_3
Process stderr file: /home/user/PrIDE/performance/gem5/stats/pride_multiprogram_16GBmem_250Mn.SPEC2017.C4/RFM10.BR2.4C/wrf/wrf.err_3
Workload-0: 
['/opt/spec2017/benchspec/CPU/521.wrf_r/run/run_base_refrate_gem5_se-m64.0000/wrf_r_base.gem5_se-m64']
Workload-1: 
['/opt/spec2017/benchspec/CPU/521.wrf_r/run/run_base_refrate_gem5_se-m64.0000/wrf_r_base.gem5_se-m64']
Workload-2: 
['/opt/spec2017/benchspec/CPU/521.wrf_r/run/run_base_refrate_gem5_se-m64.0000/wrf_r_base.gem5_se-m64']
Workload-3: 
['/opt/spec2017/benchspec/CPU/521.wrf_r/run/run_base_refrate_gem5_se-m64.0000/wrf_r_base.gem5_se-m64']
defense_enable:  True  detector:  MG  mitigation:  RFM  threshold:  800
mg_entries:  1700
rfm_maxacts_per_trefi:  79 rfm_per_trefi:  10 rfm_blast_radius:  2
Switch at curTick count:10000
warn: membus.master is deprecated. `master` is now called `mem_side_ports`
warn: No dot file generated. Please install pydot to generate the dot file and pdf.
info: Entering event queue @ 18146314377144.  Starting simulation...
info: Entering event queue @ 18146314387144.  Starting simulation...
warn: PowerState: Already in the requested power state, request ignored
Switched CPUS @ tick 18146314387144
switching cpus
**** REAL SIMULATION ****
info: Entering event queue @ 18146314387467.  Starting simulation...
warn: MOVNTDQ: Ignoring non-temporal hint, modeling as cacheable!
18149647710477: Event_285: system.switch_cpus3 progress event, total committed:26912937, progress insts committed: 26912937, IPC: 002.6886
18149647710477: Event_284: system.switch_cpus2 progress event, total committed:26935142, progress insts committed: 26935142, IPC: 02.69082
18149647710477: Event_283: system.switch_cpus1 progress event, total committed:26875828, progress insts committed: 26875828, IPC: 002.6849
18149647710477: Event_282: system.switch_cpus0 progress event, total committed:26876005, progress insts committed: 26876005, IPC: 02.68491
18152981043810: Event_282: system.switch_cpus0 progress event, total committed:59039625, progress insts committed: 32163620, IPC: 03.21315
18152981043810: Event_283: system.switch_cpus1 progress event, total committed:59013952, progress insts committed: 32138124, IPC: 003.2106
18152981043810: Event_284: system.switch_cpus2 progress event, total committed:59178279, progress insts committed: 32243137, IPC: 03.22109
18152981043810: Event_285: system.switch_cpus3 progress event, total committed:59112722, progress insts committed: 32199785, IPC: 03.21676
18156314377143: Event_285: system.switch_cpus3 progress event, total committed:90115778, progress insts committed: 31003056, IPC: 03.09721
18156314377143: Event_284: system.switch_cpus2 progress event, total committed:90286193, progress insts committed: 31107914, IPC: 03.10768
18156314377143: Event_283: system.switch_cpus1 progress event, total committed:89864747, progress insts committed: 30850795, IPC: 03.08199
18156314377143: Event_282: system.switch_cpus0 progress event, total committed:89921870, progress insts committed: 30882245, IPC: 03.08514
18159647710476: Event_282: system.switch_cpus0 progress event, total committed:122505086, progress insts committed: 32583216, IPC: 03.25506
18159647710476: Event_283: system.switch_cpus1 progress event, total committed:122461837, progress insts committed: 32597090, IPC: 03.25645
18159647710476: Event_284: system.switch_cpus2 progress event, total committed:123067887, progress insts committed: 32781694, IPC: 03.27489
18159647710476: Event_285: system.switch_cpus3 progress event, total committed:122783307, progress insts committed: 32667529, IPC: 03.26349
18162981043809: Event_285: system.switch_cpus3 progress event, total committed:154135189, progress insts committed: 31351882, IPC: 03.13205
18162981043809: Event_284: system.switch_cpus2 progress event, total committed:154365190, progress insts committed: 31297303, IPC: 003.1266
18162981043809: Event_283: system.switch_cpus1 progress event, total committed:153984269, progress insts committed: 31522432, IPC: 03.14909
18162981043809: Event_282: system.switch_cpus0 progress event, total committed:154037343, progress insts committed: 31532257, IPC: 03.15007
18166314377142: Event_282: system.switch_cpus0 progress event, total committed:186268120, progress insts committed: 32230777, IPC: 03.21985
18166314377142: Event_283: system.switch_cpus1 progress event, total committed:186175133, progress insts committed: 32190864, IPC: 03.21587
18166314377142: Event_284: system.switch_cpus2 progress event, total committed:187560442, progress insts committed: 33195252, IPC: 03.31621
18166314377142: Event_285: system.switch_cpus3 progress event, total committed:186983005, progress insts committed: 32847816, IPC: 003.2815
18169647710475: Event_285: system.switch_cpus3 progress event, total committed:219448323, progress insts committed: 32465318, IPC: 03.24329
18169647710475: Event_284: system.switch_cpus2 progress event, total committed:219719620, progress insts committed: 32159178, IPC: 003.2127
18169647710475: Event_283: system.switch_cpus1 progress event, total committed:218960641, progress insts committed: 32785508, IPC: 03.27527
18169647710475: Event_282: system.switch_cpus0 progress event, total committed:219029723, progress insts committed: 32761603, IPC: 03.27288
18172981043808: Event_282: system.switch_cpus0 progress event, total committed:250081121, progress insts committed: 31051398, IPC: 03.10203
18172981043808: Event_283: system.switch_cpus1 progress event, total committed:249968561, progress insts committed: 31007920, IPC: 03.09769
18172981043808: Event_284: system.switch_cpus2 progress event, total committed:252339151, progress insts committed: 32619531, IPC: 03.25869
18172981043808: Event_285: system.switch_cpus3 progress event, total committed:251544067, progress insts committed: 32095744, IPC: 03.20636
18176314377141: Event_285: system.switch_cpus3 progress event, total committed:284504479, progress insts committed: 32960412, IPC: 03.29275
18176314377141: Event_284: system.switch_cpus2 progress event, total committed:284920699, progress insts committed: 32581548, IPC: 003.2549
18176314377141: Event_283: system.switch_cpus1 progress event, total committed:282819880, progress insts committed: 32851319, IPC: 03.28185
18176314377141: Event_282: system.switch_cpus0 progress event, total committed:282939206, progress insts committed: 32858085, IPC: 03.28252
18179647710474: Event_282: system.switch_cpus0 progress event, total committed:314365690, progress insts committed: 31426484, IPC: 03.13951
18179647710474: Event_283: system.switch_cpus1 progress event, total committed:314281358, progress insts committed: 31461478, IPC: 0003.143
18179647710474: Event_284: system.switch_cpus2 progress event, total committed:317142915, progress insts committed: 32222216, IPC: 0003.219
18179647710474: Event_285: system.switch_cpus3 progress event, total committed:316181312, progress insts committed: 31676833, IPC: 03.16452
18182981043807: Event_285: system.switch_cpus3 progress event, total committed:349257438, progress insts committed: 33076126, IPC: 003.3043
18182981043807: Event_284: system.switch_cpus2 progress event, total committed:350252430, progress insts committed: 33109515, IPC: 03.30764
18182981043807: Event_283: system.switch_cpus1 progress event, total committed:347151459, progress insts committed: 32870101, IPC: 03.28372
18182981043807: Event_282: system.switch_cpus0 progress event, total committed:347280826, progress insts committed: 32915136, IPC: 03.28822
18186314377140: Event_282: system.switch_cpus0 progress event, total committed:379428882, progress insts committed: 32148056, IPC: 03.21159
18186314377140: Event_283: system.switch_cpus1 progress event, total committed:379422236, progress insts committed: 32270777, IPC: 03.22385
18186314377140: Event_284: system.switch_cpus2 progress event, total committed:381952425, progress insts committed: 31699995, IPC: 03.16683
18186314377140: Event_285: system.switch_cpus3 progress event, total committed:380784907, progress insts committed: 31527469, IPC: 03.14959
18189647710473: Event_285: system.switch_cpus3 progress event, total committed:414091546, progress insts committed: 33306639, IPC: 03.32733
18189647710473: Event_284: system.switch_cpus2 progress event, total committed:415219260, progress insts committed: 33266835, IPC: 03.32336
18189647710473: Event_283: system.switch_cpus1 progress event, total committed:411676516, progress insts committed: 32254280, IPC: 003.2222
18189647710473: Event_282: system.switch_cpus0 progress event, total committed:411878408, progress insts committed: 32449526, IPC: 03.24171
18192981043806: Event_282: system.switch_cpus0 progress event, total committed:429872313, progress insts committed: 17993905, IPC: 01.79759
18192981043806: Event_283: system.switch_cpus1 progress event, total committed:429848675, progress insts committed: 18172159, IPC: 001.8154
18192981043806: Event_284: system.switch_cpus2 progress event, total committed:430530332, progress insts committed: 15311072, IPC: 01.52958
18192981043806: Event_285: system.switch_cpus3 progress event, total committed:430251095, progress insts committed: 16159549, IPC: 01.61434
18196314377139: Event_285: system.switch_cpus3 progress event, total committed:434411919, progress insts committed: 4160824, IPC: 0.415666
18196314377139: Event_284: system.switch_cpus2 progress event, total committed:435366233, progress insts committed: 4835901, IPC: 0.483107
18196314377139: Event_283: system.switch_cpus1 progress event, total committed:433771896, progress insts committed: 3923221, IPC: 00.39193
18196314377139: Event_282: system.switch_cpus0 progress event, total committed:433821401, progress insts committed: 3949088, IPC: 0.394514
18199647710472: Event_282: system.switch_cpus0 progress event, total committed:450968397, progress insts committed: 17146996, IPC: 01.71298
18199647710472: Event_283: system.switch_cpus1 progress event, total committed:450869093, progress insts committed: 17097197, IPC: 01.70801
18199647710472: Event_284: system.switch_cpus2 progress event, total committed:453245072, progress insts committed: 17878839, IPC: 001.7861
18199647710472: Event_285: system.switch_cpus3 progress event, total committed:452210863, progress insts committed: 17798944, IPC: 01.77811
18202981043805: Event_285: system.switch_cpus3 progress event, total committed:455390727, progress insts committed: 3179864, IPC: 0.317668
18202981043805: Event_284: system.switch_cpus2 progress event, total committed:455519793, progress insts committed: 2274721, IPC: 0.227245
18202981043805: Event_283: system.switch_cpus1 progress event, total committed:455222718, progress insts committed: 4353625, IPC: 0.434927
18202981043805: Event_282: system.switch_cpus0 progress event, total committed:455237730, progress insts committed: 4269333, IPC: 0.426506
18206314377138: Event_282: system.switch_cpus0 progress event, total committed:456009011, progress insts committed: 771281, IPC: 0.077051
18206314377138: Event_283: system.switch_cpus1 progress event, total committed:455999505, progress insts committed: 776787, IPC: 0.077601
18206314377138: Event_284: system.switch_cpus2 progress event, total committed:456322400, progress insts committed: 802607, IPC: 0.0801804
18206314377138: Event_285: system.switch_cpus3 progress event, total committed:456183671, progress insts committed: 792944, IPC: 0.0792151
Exiting @ tick 18206757431919 because a thread reached the max instruction count
