Python 2.7.17
GEM5_PATH is set to '/home/user/PrIDE/performance/gem5'
SPEC17_PATH is set to '/opt/spec2017'
CKPT_PATH is set to '/home/user/PrIDE/performance/gem5/cpts'
checkpoint directory:  /home/user/PrIDE/performance/gem5/cpts/multiprogram_16GBmem_400Mn.SPEC2017.C4/parest-1-ref-x86
output directory:  /home/user/PrIDE/performance/gem5/cpts/output/multiprogram_16GBmem_400Mn.SPEC2017.C4/checkpoint_out/parest
Command line:
./ckptscript_test.sh parest 4 2017
================= Hardcoded directories ==================
GEM5_PATH:                                     /home/user/PrIDE/performance/gem5
SPEC17_PATH:                                     /opt/spec2017
==================== Script inputs =======================
BENCHMARK:                                    parest
OUTPUT_DIR:                                   /home/user/PrIDE/performance/gem5/cpts/output/multiprogram_16GBmem_400Mn.SPEC2017.C4/checkpoint_out/parest
==========================================================



--------- Here goes nothing! Starting gem5! ------------


Global frequency set at 1000000000000 ticks per second
DRAM config: RowsPerBank: 131072, BanksPerRank: 16, RanksPerChannel: 1
0: system.remote_gdb: listening for remote gdb on port 7015
warn: CoherentXBar system.cpu0.mmucache.mmubus has no snooping ports attached!
0: system.remote_gdb: listening for remote gdb on port 7018
warn: CoherentXBar system.cpu1.mmucache.mmubus has no snooping ports attached!
0: system.remote_gdb: listening for remote gdb on port 7019
warn: CoherentXBar system.cpu2.mmucache.mmubus has no snooping ports attached!
0: system.remote_gdb: listening for remote gdb on port 7020
warn: CoherentXBar system.cpu3.mmucache.mmubus has no snooping ports attached!
gem5 Simulator System.  http://gem5.org
gem5 is copyrighted software; use the --copyright option for details.

gem5 version 20.1.0.5
gem5 compiled Jul 12 2024 12:42:38
gem5 started Jul 12 2024 15:12:14
gem5 executing on a07dda8b130c, pid 1047075
command line: /home/user/PrIDE/performance/gem5/build/X86/gem5.opt --outdir=/home/user/PrIDE/performance/gem5/cpts/output/multiprogram_16GBmem_400Mn.SPEC2017.C4/checkpoint_out/parest /home/user/PrIDE/performance/gem5/configs/example/se_rq_spec_config_multicore.py --redirects /lib64=/home/utils/gcc-6.2.0/lib64 --benchmark=parest --benchmark_stdout=/home/user/PrIDE/performance/gem5/cpts/output/multiprogram_16GBmem_400Mn.SPEC2017.C4/checkpoint_out/parest/parest.out --benchmark_stderr=/home/user/PrIDE/performance/gem5/cpts/output/multiprogram_16GBmem_400Mn.SPEC2017.C4/checkpoint_out/parest/parest.err --spec-version=2017 --num-cpus=4 --mem-size=16GB --mem-type=DDR4_2400_16x4 --mem-ranks=1 --checkpoint-dir=/home/user/PrIDE/performance/gem5/cpts/multiprogram_16GBmem_400Mn.SPEC2017.C4/parest-1-ref-x86 --take-checkpoint=400000000 --at-instruction --maxinsts=400000001 --prog-interval=300Hz

Benchmark- 0   parest
Selected benchmark
--> parest
CMD: ['/opt/spec2017/benchspec/CPU/510.parest_r/run/run_base_refrate_gem5_se-m64.0000/parest_r_base.gem5_se-m64', '/opt/spec2017/benchspec/CPU/510.parest_r/run/run_base_refrate_gem5_se-m64.0000/ref.prm']
CWD: /opt/spec2017/benchspec/CPU/510.parest_r/run/run_base_refrate_gem5_se-m64.0000/
Process stdout file: /home/user/PrIDE/performance/gem5/cpts/output/multiprogram_16GBmem_400Mn.SPEC2017.C4/checkpoint_out/parest/parest.out_0
Process stderr file: /home/user/PrIDE/performance/gem5/cpts/output/multiprogram_16GBmem_400Mn.SPEC2017.C4/checkpoint_out/parest/parest.err_0
Benchmark- 1   parest
Selected benchmark
--> parest
CMD: ['/opt/spec2017/benchspec/CPU/510.parest_r/run/run_base_refrate_gem5_se-m64.0000/parest_r_base.gem5_se-m64', '/opt/spec2017/benchspec/CPU/510.parest_r/run/run_base_refrate_gem5_se-m64.0000/ref.prm']
CWD: /opt/spec2017/benchspec/CPU/510.parest_r/run/run_base_refrate_gem5_se-m64.0000/
Process stdout file: /home/user/PrIDE/performance/gem5/cpts/output/multiprogram_16GBmem_400Mn.SPEC2017.C4/checkpoint_out/parest/parest.out_1
Process stderr file: /home/user/PrIDE/performance/gem5/cpts/output/multiprogram_16GBmem_400Mn.SPEC2017.C4/checkpoint_out/parest/parest.err_1
Benchmark- 2   parest
Selected benchmark
--> parest
CMD: ['/opt/spec2017/benchspec/CPU/510.parest_r/run/run_base_refrate_gem5_se-m64.0000/parest_r_base.gem5_se-m64', '/opt/spec2017/benchspec/CPU/510.parest_r/run/run_base_refrate_gem5_se-m64.0000/ref.prm']
CWD: /opt/spec2017/benchspec/CPU/510.parest_r/run/run_base_refrate_gem5_se-m64.0000/
Process stdout file: /home/user/PrIDE/performance/gem5/cpts/output/multiprogram_16GBmem_400Mn.SPEC2017.C4/checkpoint_out/parest/parest.out_2
Process stderr file: /home/user/PrIDE/performance/gem5/cpts/output/multiprogram_16GBmem_400Mn.SPEC2017.C4/checkpoint_out/parest/parest.err_2
Benchmark- 3   parest
Selected benchmark
--> parest
CMD: ['/opt/spec2017/benchspec/CPU/510.parest_r/run/run_base_refrate_gem5_se-m64.0000/parest_r_base.gem5_se-m64', '/opt/spec2017/benchspec/CPU/510.parest_r/run/run_base_refrate_gem5_se-m64.0000/ref.prm']
CWD: /opt/spec2017/benchspec/CPU/510.parest_r/run/run_base_refrate_gem5_se-m64.0000/
Process stdout file: /home/user/PrIDE/performance/gem5/cpts/output/multiprogram_16GBmem_400Mn.SPEC2017.C4/checkpoint_out/parest/parest.out_3
Process stderr file: /home/user/PrIDE/performance/gem5/cpts/output/multiprogram_16GBmem_400Mn.SPEC2017.C4/checkpoint_out/parest/parest.err_3
Workload-0: 
['/opt/spec2017/benchspec/CPU/510.parest_r/run/run_base_refrate_gem5_se-m64.0000/parest_r_base.gem5_se-m64', '/opt/spec2017/benchspec/CPU/510.parest_r/run/run_base_refrate_gem5_se-m64.0000/ref.prm']
Workload-1: 
['/opt/spec2017/benchspec/CPU/510.parest_r/run/run_base_refrate_gem5_se-m64.0000/parest_r_base.gem5_se-m64', '/opt/spec2017/benchspec/CPU/510.parest_r/run/run_base_refrate_gem5_se-m64.0000/ref.prm']
Workload-2: 
['/opt/spec2017/benchspec/CPU/510.parest_r/run/run_base_refrate_gem5_se-m64.0000/parest_r_base.gem5_se-m64', '/opt/spec2017/benchspec/CPU/510.parest_r/run/run_base_refrate_gem5_se-m64.0000/ref.prm']
Workload-3: 
['/opt/spec2017/benchspec/CPU/510.parest_r/run/run_base_refrate_gem5_se-m64.0000/parest_r_base.gem5_se-m64', '/opt/spec2017/benchspec/CPU/510.parest_r/run/run_base_refrate_gem5_se-m64.0000/ref.prm']
defense_enable:  False  detector:  MG  mitigation:  RRS  threshold:  800
mg_entries:  1700
rrs_tuples:  3400 rrs_swap_delay:  2740ns rit_acc_delay:  1.25ns
Creating checkpoint at inst:400000000
warn: membus.master is deprecated. `master` is now called `mem_side_ports`
warn: No dot file generated. Please install pydot to generate the dot file and pdf.
info: Entering event queue @ 0.  Starting simulation...
warn: ignoring syscall access(...)
warn: ignoring syscall access(...)
warn: ignoring syscall access(...)
warn: ignoring syscall access(...)
warn: ignoring syscall access(...)
warn: ignoring syscall access(...)
warn: ignoring syscall access(...)
warn: ignoring syscall access(...)
warn: ignoring syscall access(...)
warn: ignoring syscall access(...)
warn: ignoring syscall access(...)
warn: ignoring syscall access(...)
warn: ignoring syscall mprotect(...)
warn: ignoring syscall mprotect(...)
warn: ignoring syscall mprotect(...)
warn: ignoring syscall mprotect(...)
warn: ignoring syscall access(...)
warn: ignoring syscall access(...)
warn: ignoring syscall access(...)
warn: ignoring syscall access(...)
warn: ignoring syscall mprotect(...)
warn: ignoring syscall mprotect(...)
warn: ignoring syscall mprotect(...)
warn: ignoring syscall mprotect(...)
warn: ignoring syscall access(...)
warn: ignoring syscall access(...)
warn: ignoring syscall access(...)
warn: ignoring syscall access(...)
warn: ignoring syscall mprotect(...)
warn: ignoring syscall mprotect(...)
warn: ignoring syscall mprotect(...)
warn: ignoring syscall mprotect(...)
warn: ignoring syscall access(...)
warn: ignoring syscall access(...)
warn: ignoring syscall access(...)
warn: ignoring syscall access(...)
info: Increasing stack size by one page.
info: Increasing stack size by one page.
info: Increasing stack size by one page.
info: Increasing stack size by one page.
warn: ignoring syscall mprotect(...)
warn: ignoring syscall mprotect(...)
warn: ignoring syscall mprotect(...)
warn: ignoring syscall mprotect(...)
warn: ignoring syscall mprotect(...)
warn: ignoring syscall mprotect(...)
warn: ignoring syscall mprotect(...)
warn: ignoring syscall mprotect(...)
warn: ignoring syscall mprotect(...)
warn: ignoring syscall mprotect(...)
warn: ignoring syscall mprotect(...)
warn: ignoring syscall mprotect(...)
warn: ignoring syscall mprotect(...)
warn: ignoring syscall mprotect(...)
warn: ignoring syscall mprotect(...)
warn: ignoring syscall mprotect(...)
warn: ignoring syscall mprotect(...)
warn: ignoring syscall mprotect(...)
warn: ignoring syscall mprotect(...)
warn: ignoring syscall mprotect(...)
warn: ignoring syscall mprotect(...)
warn: ignoring syscall mprotect(...)
warn: ignoring syscall mprotect(...)
warn: ignoring syscall mprotect(...)
warn: ignoring syscall mprotect(...)
warn: ignoring syscall mprotect(...)
warn: ignoring syscall mprotect(...)
warn: ignoring syscall mprotect(...)
warn: MOVNTDQ: Ignoring non-temporal hint, modeling as cacheable!
3333333333: Event_253: system.cpu3 progress event, total committed:8531944, progress insts committed: 8531944, IPC: 0.852341
3333333333: Event_252: system.cpu2 progress event, total committed:8531944, progress insts committed: 8531944, IPC: 0.852341
3333333333: Event_251: system.cpu1 progress event, total committed:8531944, progress insts committed: 8531944, IPC: 0.852341
3333333333: Event_250: system.cpu0 progress event, total committed:8531944, progress insts committed: 8531944, IPC: 0.852341
exit cause = exiting with last active thread context
Exiting @ tick 4160607561 because exiting with last active thread context
Simulated exit code not 0! Exit code is 2
