Command line:
./runscript_pride.sh bwaves RFM10.BR2.4C 4 2017 --rh_defense --rh_mitigation=RFM --rh_rfm_per_trefi=10 --rh_rfm_blast_radius=2 --rh_rfm_maxacts_per_trefi=79
Global frequency set at 1000000000000 ticks per second
RFM details - rfm_act_threshold: 7, blast_radius: 2, delay_per_rfm: 175000 ps. sample_rate: 0.125000
RH Defense config: RFM, Bus Delay: 0, rfms_per_trefi: 10, rfm_act_threshold: 7, blast_radius: 2,rfm_delay_per_act: 45000 ps.
DRAM config: RowsPerBank: 65536, BanksPerRank: 32, RanksPerChannel: 1
warn: Sockets disabled, not accepting gdb connections
warn: CoherentXBar system.cpu0.mmucache.mmubus has no snooping ports attached!
warn: CoherentXBar system.cpu1.mmucache.mmubus has no snooping ports attached!
warn: CoherentXBar system.cpu2.mmucache.mmubus has no snooping ports attached!
warn: CoherentXBar system.cpu3.mmucache.mmubus has no snooping ports attached!
warn: Checkpoints for file descriptors currently do not work.
warn: Checkpoints for file descriptors currently do not work.
warn: Checkpoints for file descriptors currently do not work.
warn: Checkpoints for file descriptors currently do not work.
gem5 Simulator System.  http://gem5.org
gem5 is copyrighted software; use the --copyright option for details.

gem5 version 20.1.0.5
gem5 compiled Jul 12 2024 12:42:38
gem5 started Jul 22 2024 18:04:37
gem5 executing on a07dda8b130c, pid 89659
command line: /home/user/PrIDE/performance/gem5/build/X86/gem5.opt --outdir=/home/user/PrIDE/performance/gem5/stats/pride_multiprogram_16GBmem_250Mn.SPEC2017.C4/RFM10.BR2.4C/bwaves /home/user/PrIDE/performance/gem5/configs/example/se_rq_spec_config_multicore.py --redirects /lib64=/home/utils/gcc-6.2.0/lib64 --benchmark=bwaves --benchmark_stdout=/home/user/PrIDE/performance/gem5/stats/pride_multiprogram_16GBmem_250Mn.SPEC2017.C4/RFM10.BR2.4C/bwaves/bwaves.out --benchmark_stderr=/home/user/PrIDE/performance/gem5/stats/pride_multiprogram_16GBmem_250Mn.SPEC2017.C4/RFM10.BR2.4C/bwaves/bwaves.err --spec-version=2017 --rh_defense --rh_mitigation=RFM --rh_rfm_per_trefi=10 --rh_rfm_blast_radius=2 --rh_rfm_maxacts_per_trefi=79 --num-cpus=4 --mem-size=16GB --mem-type=DDR5_2400_32x4 --mem-ranks=1 --checkpoint-dir=/home/user/PrIDE/performance/gem5/cpts/multiprogram_16GBmem_25Bn.SPEC2017.C4/bwaves-1-ref-x86 --checkpoint-restore=25000000000 --at-instruction --cpu-type DerivO3CPU --caches --l2cache --l1d_size=32kB --l1i_size=32kB --l2_size=256kB --l1d_assoc=8 --l1i_assoc=8 --l2_assoc=16 --maxinsts=250000000 --prog-interval=300Hz

info: Standard input is not a terminal, disabling listeners.
Benchmark- 0   bwaves
Selected benchmark
--> bwaves
CMD: ['/opt/spec2017/benchspec/CPU/503.bwaves_r/run/run_base_refrate_gem5_se-m64.0000/bwaves_r_base.gem5_se-m64', '/opt/spec2017/benchspec/CPU/503.bwaves_r/run/run_base_refrate_gem5_se-m64.0000/bwaves_1']
CWD: /opt/spec2017/benchspec/CPU/503.bwaves_r/run/run_base_refrate_gem5_se-m64.0000/
Process stdout file: /home/user/PrIDE/performance/gem5/stats/pride_multiprogram_16GBmem_250Mn.SPEC2017.C4/RFM10.BR2.4C/bwaves/bwaves.out_0
Process stderr file: /home/user/PrIDE/performance/gem5/stats/pride_multiprogram_16GBmem_250Mn.SPEC2017.C4/RFM10.BR2.4C/bwaves/bwaves.err_0
Benchmark- 1   bwaves
Selected benchmark
--> bwaves
CMD: ['/opt/spec2017/benchspec/CPU/503.bwaves_r/run/run_base_refrate_gem5_se-m64.0000/bwaves_r_base.gem5_se-m64', '/opt/spec2017/benchspec/CPU/503.bwaves_r/run/run_base_refrate_gem5_se-m64.0000/bwaves_1']
CWD: /opt/spec2017/benchspec/CPU/503.bwaves_r/run/run_base_refrate_gem5_se-m64.0000/
Process stdout file: /home/user/PrIDE/performance/gem5/stats/pride_multiprogram_16GBmem_250Mn.SPEC2017.C4/RFM10.BR2.4C/bwaves/bwaves.out_1
Process stderr file: /home/user/PrIDE/performance/gem5/stats/pride_multiprogram_16GBmem_250Mn.SPEC2017.C4/RFM10.BR2.4C/bwaves/bwaves.err_1
Benchmark- 2   bwaves
Selected benchmark
--> bwaves
CMD: ['/opt/spec2017/benchspec/CPU/503.bwaves_r/run/run_base_refrate_gem5_se-m64.0000/bwaves_r_base.gem5_se-m64', '/opt/spec2017/benchspec/CPU/503.bwaves_r/run/run_base_refrate_gem5_se-m64.0000/bwaves_1']
CWD: /opt/spec2017/benchspec/CPU/503.bwaves_r/run/run_base_refrate_gem5_se-m64.0000/
Process stdout file: /home/user/PrIDE/performance/gem5/stats/pride_multiprogram_16GBmem_250Mn.SPEC2017.C4/RFM10.BR2.4C/bwaves/bwaves.out_2
Process stderr file: /home/user/PrIDE/performance/gem5/stats/pride_multiprogram_16GBmem_250Mn.SPEC2017.C4/RFM10.BR2.4C/bwaves/bwaves.err_2
Benchmark- 3   bwaves
Selected benchmark
--> bwaves
CMD: ['/opt/spec2017/benchspec/CPU/503.bwaves_r/run/run_base_refrate_gem5_se-m64.0000/bwaves_r_base.gem5_se-m64', '/opt/spec2017/benchspec/CPU/503.bwaves_r/run/run_base_refrate_gem5_se-m64.0000/bwaves_1']
CWD: /opt/spec2017/benchspec/CPU/503.bwaves_r/run/run_base_refrate_gem5_se-m64.0000/
Process stdout file: /home/user/PrIDE/performance/gem5/stats/pride_multiprogram_16GBmem_250Mn.SPEC2017.C4/RFM10.BR2.4C/bwaves/bwaves.out_3
Process stderr file: /home/user/PrIDE/performance/gem5/stats/pride_multiprogram_16GBmem_250Mn.SPEC2017.C4/RFM10.BR2.4C/bwaves/bwaves.err_3
Workload-0: 
['/opt/spec2017/benchspec/CPU/503.bwaves_r/run/run_base_refrate_gem5_se-m64.0000/bwaves_r_base.gem5_se-m64', '/opt/spec2017/benchspec/CPU/503.bwaves_r/run/run_base_refrate_gem5_se-m64.0000/bwaves_1']
Workload-1: 
['/opt/spec2017/benchspec/CPU/503.bwaves_r/run/run_base_refrate_gem5_se-m64.0000/bwaves_r_base.gem5_se-m64', '/opt/spec2017/benchspec/CPU/503.bwaves_r/run/run_base_refrate_gem5_se-m64.0000/bwaves_1']
Workload-2: 
['/opt/spec2017/benchspec/CPU/503.bwaves_r/run/run_base_refrate_gem5_se-m64.0000/bwaves_r_base.gem5_se-m64', '/opt/spec2017/benchspec/CPU/503.bwaves_r/run/run_base_refrate_gem5_se-m64.0000/bwaves_1']
Workload-3: 
['/opt/spec2017/benchspec/CPU/503.bwaves_r/run/run_base_refrate_gem5_se-m64.0000/bwaves_r_base.gem5_se-m64', '/opt/spec2017/benchspec/CPU/503.bwaves_r/run/run_base_refrate_gem5_se-m64.0000/bwaves_1']
defense_enable:  True  detector:  MG  mitigation:  RFM  threshold:  800
mg_entries:  1700
rfm_maxacts_per_trefi:  79 rfm_per_trefi:  10 rfm_blast_radius:  2
Switch at curTick count:10000
warn: membus.master is deprecated. `master` is now called `mem_side_ports`
warn: No dot file generated. Please install pydot to generate the dot file and pdf.
info: Entering event queue @ 17475504708294.  Starting simulation...
warn: PowerState: Already in the requested power state, request ignored
Switched CPUS @ tick 17475504718294
switching cpus
**** REAL SIMULATION ****
info: Entering event queue @ 17475504718294.  Starting simulation...
17478838041627: Event_285: system.switch_cpus3 progress event, total committed:4546246, progress insts committed: 4546246, IPC: 00.45417
17478838041627: Event_284: system.switch_cpus2 progress event, total committed:4547243, progress insts committed: 4547243, IPC: 00.45427
17478838041627: Event_283: system.switch_cpus1 progress event, total committed:4551534, progress insts committed: 4551534, IPC: 0.454698
17478838041627: Event_282: system.switch_cpus0 progress event, total committed:4552215, progress insts committed: 4552215, IPC: 0.454766
17482171374960: Event_282: system.switch_cpus0 progress event, total committed:8881060, progress insts committed: 4328845, IPC: 0.432452
17482171374960: Event_283: system.switch_cpus1 progress event, total committed:8879403, progress insts committed: 4327869, IPC: 0.432354
17482171374960: Event_284: system.switch_cpus2 progress event, total committed:8875110, progress insts committed: 4327867, IPC: 0.432354
17482171374960: Event_285: system.switch_cpus3 progress event, total committed:8873329, progress insts committed: 4327083, IPC: 0.432276
17485504708293: Event_285: system.switch_cpus3 progress event, total committed:13304441, progress insts committed: 4431112, IPC: 0.442668
17485504708293: Event_284: system.switch_cpus2 progress event, total committed:13310314, progress insts committed: 4435204, IPC: 0.443077
17485504708293: Event_283: system.switch_cpus1 progress event, total committed:13319160, progress insts committed: 4439757, IPC: 0.443532
17485504708293: Event_282: system.switch_cpus0 progress event, total committed:13319361, progress insts committed: 4438301, IPC: 0.443386
17488838041626: Event_282: system.switch_cpus0 progress event, total committed:17731051, progress insts committed: 4411690, IPC: 0.440728
17488838041626: Event_283: system.switch_cpus1 progress event, total committed:17730612, progress insts committed: 4411452, IPC: 0.440704
17488838041626: Event_284: system.switch_cpus2 progress event, total committed:17727420, progress insts committed: 4417106, IPC: 0.441269
17488838041626: Event_285: system.switch_cpus3 progress event, total committed:17719784, progress insts committed: 4415343, IPC: 0.441093
17492171374959: Event_285: system.switch_cpus3 progress event, total committed:22170291, progress insts committed: 4450507, IPC: 0.444606
17492171374959: Event_284: system.switch_cpus2 progress event, total committed:22176486, progress insts committed: 4449066, IPC: 0.444462
17492171374959: Event_283: system.switch_cpus1 progress event, total committed:22181774, progress insts committed: 4451162, IPC: 0.444671
17492171374959: Event_282: system.switch_cpus0 progress event, total committed:22182227, progress insts committed: 4451176, IPC: 0.444672
17495504708292: Event_282: system.switch_cpus0 progress event, total committed:26579999, progress insts committed: 4397772, IPC: 0.439337
17495504708292: Event_283: system.switch_cpus1 progress event, total committed:26574912, progress insts committed: 4393138, IPC: 0.438874
17495504708292: Event_284: system.switch_cpus2 progress event, total committed:26568171, progress insts committed: 4391685, IPC: 0.438729
17495504708292: Event_285: system.switch_cpus3 progress event, total committed:26566741, progress insts committed: 4396450, IPC: 0.439205
17498838041625: Event_285: system.switch_cpus3 progress event, total committed:30882399, progress insts committed: 4315658, IPC: 0.431134
17498838041625: Event_284: system.switch_cpus2 progress event, total committed:30886765, progress insts committed: 4318594, IPC: 0.431428
17498838041625: Event_283: system.switch_cpus1 progress event, total committed:30886930, progress insts committed: 4312018, IPC: 0.430771
17498838041625: Event_282: system.switch_cpus0 progress event, total committed:30897067, progress insts committed: 4317068, IPC: 0.431275
fatal: Unable to find destination for [0x8000000000000082:0x8000000000000086] on system.membus
Memory Usage: 17655676 KBytes
