
---------- Begin Simulation Statistics ----------
final_tick                               15684573423636                       # Number of ticks from beginning of simulation (restored from checkpoints and never reset)
host_inst_rate                                 173975                       # Simulator instruction rate (inst/s)
host_mem_usage                               17363324                       # Number of bytes of host memory used
host_op_rate                                   300311                       # Simulator op (including micro ops) rate (op/s)
host_seconds                                  4127.87                       # Real time elapsed on the host
host_tick_rate                                8071068                       # Simulator tick rate (ticks/s)
sim_freq                                 1000000000000                       # Frequency of simulated ticks
sim_insts                                   718146060                       # Number of instructions simulated
sim_ops                                    1239642718                       # Number of ops (including micro ops) simulated
sim_seconds                                  0.033316                       # Number of seconds simulated
sim_ticks                                 33316305345                       # Number of ticks simulated
system.cpu0.Branches                                1                       # Number of branches fetched
system.cpu0.committedInsts                         14                       # Number of instructions committed
system.cpu0.committedOps                           26                       # Number of ops (including micro ops) committed
system.cpu0.idle_fraction                           0                       # Percentage of idle cycles
system.cpu0.l2bus.snoop_filter.hit_multi_requests        16164                       # Number of requests hitting in the snoop filter with multiple (>1) holders of the requested data.
system.cpu0.l2bus.snoop_filter.hit_multi_snoops            0                       # Number of snoops hitting in the snoop filter with multiple (>1) holders of the requested data.
system.cpu0.l2bus.snoop_filter.hit_single_requests      1723664                       # Number of requests hitting in the snoop filter with a single holder of the requested data.
system.cpu0.l2bus.snoop_filter.hit_single_snoops            0                       # Number of snoops hitting in the snoop filter with a single holder of the requested data.
system.cpu0.l2bus.snoop_filter.tot_requests      3448339                       # Total number of requests made to the snoop filter.
system.cpu0.l2bus.snoop_filter.tot_snoops            0                       # Total number of snoops made to the snoop filter.
system.cpu0.mmucache.mmubus.snoop_filter.hit_multi_requests            0                       # Number of requests hitting in the snoop filter with multiple (>1) holders of the requested data.
system.cpu0.mmucache.mmubus.snoop_filter.hit_multi_snoops            0                       # Number of snoops hitting in the snoop filter with multiple (>1) holders of the requested data.
system.cpu0.mmucache.mmubus.snoop_filter.hit_single_requests            0                       # Number of requests hitting in the snoop filter with a single holder of the requested data.
system.cpu0.mmucache.mmubus.snoop_filter.hit_single_snoops            0                       # Number of snoops hitting in the snoop filter with a single holder of the requested data.
system.cpu0.mmucache.mmubus.snoop_filter.tot_requests            0                       # Total number of requests made to the snoop filter.
system.cpu0.mmucache.mmubus.snoop_filter.tot_snoops            0                       # Total number of snoops made to the snoop filter.
system.cpu0.not_idle_fraction                       1                       # Percentage of non-idle cycles
system.cpu0.numCycles                              32                       # number of cpu cycles simulated
system.cpu0.numWorkItemsCompleted                   0                       # number of work items this cpu completed
system.cpu0.numWorkItemsStarted                     0                       # number of work items this cpu started
system.cpu0.num_busy_cycles                        32                       # Number of busy cycles
system.cpu0.num_cc_register_reads                   1                       # number of times the CC registers were read
system.cpu0.num_cc_register_writes                  2                       # number of times the CC registers were written
system.cpu0.num_conditional_control_insts            0                       # number of instructions that are conditional controls
system.cpu0.num_fp_alu_accesses                    17                       # Number of float alu accesses
system.cpu0.num_fp_insts                           17                       # number of float instructions
system.cpu0.num_fp_register_reads                  26                       # number of times the floating registers were read
system.cpu0.num_fp_register_writes                 13                       # number of times the floating registers were written
system.cpu0.num_func_calls                          1                       # number of times a function call or return occured
system.cpu0.num_idle_cycles                         0                       # Number of idle cycles
system.cpu0.num_int_alu_accesses                   18                       # Number of integer alu accesses
system.cpu0.num_int_insts                          18                       # number of integer instructions
system.cpu0.num_int_register_reads                 45                       # number of times the integer registers were read
system.cpu0.num_int_register_writes                 6                       # number of times the integer registers were written
system.cpu0.num_load_insts                          6                       # Number of load instructions
system.cpu0.num_mem_refs                           12                       # number of memory refs
system.cpu0.num_store_insts                         6                       # Number of store instructions
system.cpu0.num_vec_alu_accesses                    0                       # Number of vector alu accesses
system.cpu0.num_vec_insts                           0                       # number of vector instructions
system.cpu0.num_vec_register_reads                  0                       # number of times the vector registers were read
system.cpu0.num_vec_register_writes                 0                       # number of times the vector registers were written
system.cpu0.op_class::No_OpClass                    0      0.00%      0.00% # Class of executed instruction
system.cpu0.op_class::IntAlu                        8     30.77%     30.77% # Class of executed instruction
system.cpu0.op_class::IntMult                       0      0.00%     30.77% # Class of executed instruction
system.cpu0.op_class::IntDiv                        0      0.00%     30.77% # Class of executed instruction
system.cpu0.op_class::FloatAdd                      0      0.00%     30.77% # Class of executed instruction
system.cpu0.op_class::FloatCmp                      0      0.00%     30.77% # Class of executed instruction
system.cpu0.op_class::FloatCvt                      0      0.00%     30.77% # Class of executed instruction
system.cpu0.op_class::FloatMult                     0      0.00%     30.77% # Class of executed instruction
system.cpu0.op_class::FloatMultAcc                  0      0.00%     30.77% # Class of executed instruction
system.cpu0.op_class::FloatDiv                      0      0.00%     30.77% # Class of executed instruction
system.cpu0.op_class::FloatMisc                     0      0.00%     30.77% # Class of executed instruction
system.cpu0.op_class::FloatSqrt                     0      0.00%     30.77% # Class of executed instruction
system.cpu0.op_class::SimdAdd                       0      0.00%     30.77% # Class of executed instruction
system.cpu0.op_class::SimdAddAcc                    0      0.00%     30.77% # Class of executed instruction
system.cpu0.op_class::SimdAlu                       0      0.00%     30.77% # Class of executed instruction
system.cpu0.op_class::SimdCmp                       0      0.00%     30.77% # Class of executed instruction
system.cpu0.op_class::SimdCvt                       0      0.00%     30.77% # Class of executed instruction
system.cpu0.op_class::SimdMisc                      0      0.00%     30.77% # Class of executed instruction
system.cpu0.op_class::SimdMult                      0      0.00%     30.77% # Class of executed instruction
system.cpu0.op_class::SimdMultAcc                   0      0.00%     30.77% # Class of executed instruction
system.cpu0.op_class::SimdShift                     0      0.00%     30.77% # Class of executed instruction
system.cpu0.op_class::SimdShiftAcc                  0      0.00%     30.77% # Class of executed instruction
system.cpu0.op_class::SimdDiv                       0      0.00%     30.77% # Class of executed instruction
system.cpu0.op_class::SimdSqrt                      0      0.00%     30.77% # Class of executed instruction
system.cpu0.op_class::SimdFloatAdd                  3     11.54%     42.31% # Class of executed instruction
system.cpu0.op_class::SimdFloatAlu                  0      0.00%     42.31% # Class of executed instruction
system.cpu0.op_class::SimdFloatCmp                  0      0.00%     42.31% # Class of executed instruction
system.cpu0.op_class::SimdFloatCvt                  0      0.00%     42.31% # Class of executed instruction
system.cpu0.op_class::SimdFloatDiv                  0      0.00%     42.31% # Class of executed instruction
system.cpu0.op_class::SimdFloatMisc                 0      0.00%     42.31% # Class of executed instruction
system.cpu0.op_class::SimdFloatMult                 3     11.54%     53.85% # Class of executed instruction
system.cpu0.op_class::SimdFloatMultAcc              0      0.00%     53.85% # Class of executed instruction
system.cpu0.op_class::SimdFloatSqrt                 0      0.00%     53.85% # Class of executed instruction
system.cpu0.op_class::SimdReduceAdd                 0      0.00%     53.85% # Class of executed instruction
system.cpu0.op_class::SimdReduceAlu                 0      0.00%     53.85% # Class of executed instruction
system.cpu0.op_class::SimdReduceCmp                 0      0.00%     53.85% # Class of executed instruction
system.cpu0.op_class::SimdFloatReduceAdd            0      0.00%     53.85% # Class of executed instruction
system.cpu0.op_class::SimdFloatReduceCmp            0      0.00%     53.85% # Class of executed instruction
system.cpu0.op_class::SimdAes                       0      0.00%     53.85% # Class of executed instruction
system.cpu0.op_class::SimdAesMix                    0      0.00%     53.85% # Class of executed instruction
system.cpu0.op_class::SimdSha1Hash                  0      0.00%     53.85% # Class of executed instruction
system.cpu0.op_class::SimdSha1Hash2                 0      0.00%     53.85% # Class of executed instruction
system.cpu0.op_class::SimdSha256Hash                0      0.00%     53.85% # Class of executed instruction
system.cpu0.op_class::SimdSha256Hash2               0      0.00%     53.85% # Class of executed instruction
system.cpu0.op_class::SimdShaSigma2                 0      0.00%     53.85% # Class of executed instruction
system.cpu0.op_class::SimdShaSigma3                 0      0.00%     53.85% # Class of executed instruction
system.cpu0.op_class::SimdPredAlu                   0      0.00%     53.85% # Class of executed instruction
system.cpu0.op_class::MemRead                       1      3.85%     57.69% # Class of executed instruction
system.cpu0.op_class::MemWrite                      2      7.69%     65.38% # Class of executed instruction
system.cpu0.op_class::FloatMemRead                  5     19.23%     84.62% # Class of executed instruction
system.cpu0.op_class::FloatMemWrite                 4     15.38%    100.00% # Class of executed instruction
system.cpu0.op_class::IprAccess                     0      0.00%    100.00% # Class of executed instruction
system.cpu0.op_class::InstPrefetch                  0      0.00%    100.00% # Class of executed instruction
system.cpu0.op_class::total                        26                       # Class of executed instruction
system.cpu0.workload.numSyscalls                    2                       # Number of system calls
system.cpu1.Branches                                1                       # Number of branches fetched
system.cpu1.committedInsts                         16                       # Number of instructions committed
system.cpu1.committedOps                           22                       # Number of ops (including micro ops) committed
system.cpu1.idle_fraction                           0                       # Percentage of idle cycles
system.cpu1.l2bus.snoop_filter.hit_multi_requests            2                       # Number of requests hitting in the snoop filter with multiple (>1) holders of the requested data.
system.cpu1.l2bus.snoop_filter.hit_multi_snoops            0                       # Number of snoops hitting in the snoop filter with multiple (>1) holders of the requested data.
system.cpu1.l2bus.snoop_filter.hit_single_requests      1452799                       # Number of requests hitting in the snoop filter with a single holder of the requested data.
system.cpu1.l2bus.snoop_filter.hit_single_snoops         1769                       # Number of snoops hitting in the snoop filter with a single holder of the requested data.
system.cpu1.l2bus.snoop_filter.tot_requests      2839654                       # Total number of requests made to the snoop filter.
system.cpu1.l2bus.snoop_filter.tot_snoops         1769                       # Total number of snoops made to the snoop filter.
system.cpu1.mmucache.mmubus.snoop_filter.hit_multi_requests            0                       # Number of requests hitting in the snoop filter with multiple (>1) holders of the requested data.
system.cpu1.mmucache.mmubus.snoop_filter.hit_multi_snoops            0                       # Number of snoops hitting in the snoop filter with multiple (>1) holders of the requested data.
system.cpu1.mmucache.mmubus.snoop_filter.hit_single_requests            0                       # Number of requests hitting in the snoop filter with a single holder of the requested data.
system.cpu1.mmucache.mmubus.snoop_filter.hit_single_snoops            0                       # Number of snoops hitting in the snoop filter with a single holder of the requested data.
system.cpu1.mmucache.mmubus.snoop_filter.tot_requests            0                       # Total number of requests made to the snoop filter.
system.cpu1.mmucache.mmubus.snoop_filter.tot_snoops            0                       # Total number of snoops made to the snoop filter.
system.cpu1.not_idle_fraction                       1                       # Percentage of non-idle cycles
system.cpu1.numCycles                              30                       # number of cpu cycles simulated
system.cpu1.numWorkItemsCompleted                   0                       # number of work items this cpu completed
system.cpu1.numWorkItemsStarted                     0                       # number of work items this cpu started
system.cpu1.num_busy_cycles                        30                       # Number of busy cycles
system.cpu1.num_cc_register_reads                   5                       # number of times the CC registers were read
system.cpu1.num_cc_register_writes                  6                       # number of times the CC registers were written
system.cpu1.num_conditional_control_insts            1                       # number of instructions that are conditional controls
system.cpu1.num_fp_alu_accesses                    13                       # Number of float alu accesses
system.cpu1.num_fp_insts                           13                       # number of float instructions
system.cpu1.num_fp_register_reads                  23                       # number of times the floating registers were read
system.cpu1.num_fp_register_writes                 12                       # number of times the floating registers were written
system.cpu1.num_func_calls                          0                       # number of times a function call or return occured
system.cpu1.num_idle_cycles                         0                       # Number of idle cycles
system.cpu1.num_int_alu_accesses                   14                       # Number of integer alu accesses
system.cpu1.num_int_insts                          14                       # number of integer instructions
system.cpu1.num_int_register_reads                 31                       # number of times the integer registers were read
system.cpu1.num_int_register_writes                 8                       # number of times the integer registers were written
system.cpu1.num_load_insts                          6                       # Number of load instructions
system.cpu1.num_mem_refs                            7                       # number of memory refs
system.cpu1.num_store_insts                         1                       # Number of store instructions
system.cpu1.num_vec_alu_accesses                    0                       # Number of vector alu accesses
system.cpu1.num_vec_insts                           0                       # number of vector instructions
system.cpu1.num_vec_register_reads                  0                       # number of times the vector registers were read
system.cpu1.num_vec_register_writes                 0                       # number of times the vector registers were written
system.cpu1.op_class::No_OpClass                    0      0.00%      0.00% # Class of executed instruction
system.cpu1.op_class::IntAlu                        9     40.91%     40.91% # Class of executed instruction
system.cpu1.op_class::IntMult                       0      0.00%     40.91% # Class of executed instruction
system.cpu1.op_class::IntDiv                        0      0.00%     40.91% # Class of executed instruction
system.cpu1.op_class::FloatAdd                      0      0.00%     40.91% # Class of executed instruction
system.cpu1.op_class::FloatCmp                      0      0.00%     40.91% # Class of executed instruction
system.cpu1.op_class::FloatCvt                      0      0.00%     40.91% # Class of executed instruction
system.cpu1.op_class::FloatMult                     0      0.00%     40.91% # Class of executed instruction
system.cpu1.op_class::FloatMultAcc                  0      0.00%     40.91% # Class of executed instruction
system.cpu1.op_class::FloatDiv                      0      0.00%     40.91% # Class of executed instruction
system.cpu1.op_class::FloatMisc                     0      0.00%     40.91% # Class of executed instruction
system.cpu1.op_class::FloatSqrt                     0      0.00%     40.91% # Class of executed instruction
system.cpu1.op_class::SimdAdd                       0      0.00%     40.91% # Class of executed instruction
system.cpu1.op_class::SimdAddAcc                    0      0.00%     40.91% # Class of executed instruction
system.cpu1.op_class::SimdAlu                       0      0.00%     40.91% # Class of executed instruction
system.cpu1.op_class::SimdCmp                       0      0.00%     40.91% # Class of executed instruction
system.cpu1.op_class::SimdCvt                       0      0.00%     40.91% # Class of executed instruction
system.cpu1.op_class::SimdMisc                      0      0.00%     40.91% # Class of executed instruction
system.cpu1.op_class::SimdMult                      0      0.00%     40.91% # Class of executed instruction
system.cpu1.op_class::SimdMultAcc                   0      0.00%     40.91% # Class of executed instruction
system.cpu1.op_class::SimdShift                     0      0.00%     40.91% # Class of executed instruction
system.cpu1.op_class::SimdShiftAcc                  0      0.00%     40.91% # Class of executed instruction
system.cpu1.op_class::SimdDiv                       0      0.00%     40.91% # Class of executed instruction
system.cpu1.op_class::SimdSqrt                      0      0.00%     40.91% # Class of executed instruction
system.cpu1.op_class::SimdFloatAdd                  4     18.18%     59.09% # Class of executed instruction
system.cpu1.op_class::SimdFloatAlu                  0      0.00%     59.09% # Class of executed instruction
system.cpu1.op_class::SimdFloatCmp                  0      0.00%     59.09% # Class of executed instruction
system.cpu1.op_class::SimdFloatCvt                  0      0.00%     59.09% # Class of executed instruction
system.cpu1.op_class::SimdFloatDiv                  0      0.00%     59.09% # Class of executed instruction
system.cpu1.op_class::SimdFloatMisc                 0      0.00%     59.09% # Class of executed instruction
system.cpu1.op_class::SimdFloatMult                 2      9.09%     68.18% # Class of executed instruction
system.cpu1.op_class::SimdFloatMultAcc              0      0.00%     68.18% # Class of executed instruction
system.cpu1.op_class::SimdFloatSqrt                 0      0.00%     68.18% # Class of executed instruction
system.cpu1.op_class::SimdReduceAdd                 0      0.00%     68.18% # Class of executed instruction
system.cpu1.op_class::SimdReduceAlu                 0      0.00%     68.18% # Class of executed instruction
system.cpu1.op_class::SimdReduceCmp                 0      0.00%     68.18% # Class of executed instruction
system.cpu1.op_class::SimdFloatReduceAdd            0      0.00%     68.18% # Class of executed instruction
system.cpu1.op_class::SimdFloatReduceCmp            0      0.00%     68.18% # Class of executed instruction
system.cpu1.op_class::SimdAes                       0      0.00%     68.18% # Class of executed instruction
system.cpu1.op_class::SimdAesMix                    0      0.00%     68.18% # Class of executed instruction
system.cpu1.op_class::SimdSha1Hash                  0      0.00%     68.18% # Class of executed instruction
system.cpu1.op_class::SimdSha1Hash2                 0      0.00%     68.18% # Class of executed instruction
system.cpu1.op_class::SimdSha256Hash                0      0.00%     68.18% # Class of executed instruction
system.cpu1.op_class::SimdSha256Hash2               0      0.00%     68.18% # Class of executed instruction
system.cpu1.op_class::SimdShaSigma2                 0      0.00%     68.18% # Class of executed instruction
system.cpu1.op_class::SimdShaSigma3                 0      0.00%     68.18% # Class of executed instruction
system.cpu1.op_class::SimdPredAlu                   0      0.00%     68.18% # Class of executed instruction
system.cpu1.op_class::MemRead                       2      9.09%     77.27% # Class of executed instruction
system.cpu1.op_class::MemWrite                      0      0.00%     77.27% # Class of executed instruction
system.cpu1.op_class::FloatMemRead                  4     18.18%     95.45% # Class of executed instruction
system.cpu1.op_class::FloatMemWrite                 1      4.55%    100.00% # Class of executed instruction
system.cpu1.op_class::IprAccess                     0      0.00%    100.00% # Class of executed instruction
system.cpu1.op_class::InstPrefetch                  0      0.00%    100.00% # Class of executed instruction
system.cpu1.op_class::total                        22                       # Class of executed instruction
system.cpu1.workload.numSyscalls                    0                       # Number of system calls
system.cpu2.Branches                                1                       # Number of branches fetched
system.cpu2.committedInsts                         20                       # Number of instructions committed
system.cpu2.committedOps                           25                       # Number of ops (including micro ops) committed
system.cpu2.idle_fraction                           0                       # Percentage of idle cycles
system.cpu2.l2bus.snoop_filter.hit_multi_requests            0                       # Number of requests hitting in the snoop filter with multiple (>1) holders of the requested data.
system.cpu2.l2bus.snoop_filter.hit_multi_snoops            0                       # Number of snoops hitting in the snoop filter with multiple (>1) holders of the requested data.
system.cpu2.l2bus.snoop_filter.hit_single_requests      1780216                       # Number of requests hitting in the snoop filter with a single holder of the requested data.
system.cpu2.l2bus.snoop_filter.hit_single_snoops          419                       # Number of snoops hitting in the snoop filter with a single holder of the requested data.
system.cpu2.l2bus.snoop_filter.tot_requests      3552426                       # Total number of requests made to the snoop filter.
system.cpu2.l2bus.snoop_filter.tot_snoops          419                       # Total number of snoops made to the snoop filter.
system.cpu2.mmucache.mmubus.snoop_filter.hit_multi_requests            0                       # Number of requests hitting in the snoop filter with multiple (>1) holders of the requested data.
system.cpu2.mmucache.mmubus.snoop_filter.hit_multi_snoops            0                       # Number of snoops hitting in the snoop filter with multiple (>1) holders of the requested data.
system.cpu2.mmucache.mmubus.snoop_filter.hit_single_requests            0                       # Number of requests hitting in the snoop filter with a single holder of the requested data.
system.cpu2.mmucache.mmubus.snoop_filter.hit_single_snoops            0                       # Number of snoops hitting in the snoop filter with a single holder of the requested data.
system.cpu2.mmucache.mmubus.snoop_filter.tot_requests            0                       # Total number of requests made to the snoop filter.
system.cpu2.mmucache.mmubus.snoop_filter.tot_snoops            0                       # Total number of snoops made to the snoop filter.
system.cpu2.not_idle_fraction                       1                       # Percentage of non-idle cycles
system.cpu2.numCycles                              31                       # number of cpu cycles simulated
system.cpu2.numWorkItemsCompleted                   0                       # number of work items this cpu completed
system.cpu2.numWorkItemsStarted                     0                       # number of work items this cpu started
system.cpu2.num_busy_cycles                        31                       # Number of busy cycles
system.cpu2.num_cc_register_reads                   5                       # number of times the CC registers were read
system.cpu2.num_cc_register_writes                  8                       # number of times the CC registers were written
system.cpu2.num_conditional_control_insts            1                       # number of instructions that are conditional controls
system.cpu2.num_fp_alu_accesses                    15                       # Number of float alu accesses
system.cpu2.num_fp_insts                           15                       # number of float instructions
system.cpu2.num_fp_register_reads                  39                       # number of times the floating registers were read
system.cpu2.num_fp_register_writes                 15                       # number of times the floating registers were written
system.cpu2.num_func_calls                          0                       # number of times a function call or return occured
system.cpu2.num_idle_cycles                         0                       # Number of idle cycles
system.cpu2.num_int_alu_accesses                   11                       # Number of integer alu accesses
system.cpu2.num_int_insts                          11                       # number of integer instructions
system.cpu2.num_int_register_reads                 18                       # number of times the integer registers were read
system.cpu2.num_int_register_writes                 9                       # number of times the integer registers were written
system.cpu2.num_load_insts                          1                       # Number of load instructions
system.cpu2.num_mem_refs                            1                       # number of memory refs
system.cpu2.num_store_insts                         0                       # Number of store instructions
system.cpu2.num_vec_alu_accesses                    0                       # Number of vector alu accesses
system.cpu2.num_vec_insts                           0                       # number of vector instructions
system.cpu2.num_vec_register_reads                  0                       # number of times the vector registers were read
system.cpu2.num_vec_register_writes                 0                       # number of times the vector registers were written
system.cpu2.op_class::No_OpClass                    0      0.00%      0.00% # Class of executed instruction
system.cpu2.op_class::IntAlu                       13     52.00%     52.00% # Class of executed instruction
system.cpu2.op_class::IntMult                       0      0.00%     52.00% # Class of executed instruction
system.cpu2.op_class::IntDiv                        0      0.00%     52.00% # Class of executed instruction
system.cpu2.op_class::FloatAdd                      0      0.00%     52.00% # Class of executed instruction
system.cpu2.op_class::FloatCmp                      0      0.00%     52.00% # Class of executed instruction
system.cpu2.op_class::FloatCvt                      0      0.00%     52.00% # Class of executed instruction
system.cpu2.op_class::FloatMult                     0      0.00%     52.00% # Class of executed instruction
system.cpu2.op_class::FloatMultAcc                  0      0.00%     52.00% # Class of executed instruction
system.cpu2.op_class::FloatDiv                      0      0.00%     52.00% # Class of executed instruction
system.cpu2.op_class::FloatMisc                     0      0.00%     52.00% # Class of executed instruction
system.cpu2.op_class::FloatSqrt                     0      0.00%     52.00% # Class of executed instruction
system.cpu2.op_class::SimdAdd                       0      0.00%     52.00% # Class of executed instruction
system.cpu2.op_class::SimdAddAcc                    0      0.00%     52.00% # Class of executed instruction
system.cpu2.op_class::SimdAlu                       0      0.00%     52.00% # Class of executed instruction
system.cpu2.op_class::SimdCmp                       0      0.00%     52.00% # Class of executed instruction
system.cpu2.op_class::SimdCvt                       0      0.00%     52.00% # Class of executed instruction
system.cpu2.op_class::SimdMisc                      0      0.00%     52.00% # Class of executed instruction
system.cpu2.op_class::SimdMult                      0      0.00%     52.00% # Class of executed instruction
system.cpu2.op_class::SimdMultAcc                   0      0.00%     52.00% # Class of executed instruction
system.cpu2.op_class::SimdShift                     0      0.00%     52.00% # Class of executed instruction
system.cpu2.op_class::SimdShiftAcc                  0      0.00%     52.00% # Class of executed instruction
system.cpu2.op_class::SimdDiv                       0      0.00%     52.00% # Class of executed instruction
system.cpu2.op_class::SimdSqrt                      0      0.00%     52.00% # Class of executed instruction
system.cpu2.op_class::SimdFloatAdd                  3     12.00%     64.00% # Class of executed instruction
system.cpu2.op_class::SimdFloatAlu                  0      0.00%     64.00% # Class of executed instruction
system.cpu2.op_class::SimdFloatCmp                  0      0.00%     64.00% # Class of executed instruction
system.cpu2.op_class::SimdFloatCvt                  0      0.00%     64.00% # Class of executed instruction
system.cpu2.op_class::SimdFloatDiv                  0      0.00%     64.00% # Class of executed instruction
system.cpu2.op_class::SimdFloatMisc                 0      0.00%     64.00% # Class of executed instruction
system.cpu2.op_class::SimdFloatMult                 8     32.00%     96.00% # Class of executed instruction
system.cpu2.op_class::SimdFloatMultAcc              0      0.00%     96.00% # Class of executed instruction
system.cpu2.op_class::SimdFloatSqrt                 0      0.00%     96.00% # Class of executed instruction
system.cpu2.op_class::SimdReduceAdd                 0      0.00%     96.00% # Class of executed instruction
system.cpu2.op_class::SimdReduceAlu                 0      0.00%     96.00% # Class of executed instruction
system.cpu2.op_class::SimdReduceCmp                 0      0.00%     96.00% # Class of executed instruction
system.cpu2.op_class::SimdFloatReduceAdd            0      0.00%     96.00% # Class of executed instruction
system.cpu2.op_class::SimdFloatReduceCmp            0      0.00%     96.00% # Class of executed instruction
system.cpu2.op_class::SimdAes                       0      0.00%     96.00% # Class of executed instruction
system.cpu2.op_class::SimdAesMix                    0      0.00%     96.00% # Class of executed instruction
system.cpu2.op_class::SimdSha1Hash                  0      0.00%     96.00% # Class of executed instruction
system.cpu2.op_class::SimdSha1Hash2                 0      0.00%     96.00% # Class of executed instruction
system.cpu2.op_class::SimdSha256Hash                0      0.00%     96.00% # Class of executed instruction
system.cpu2.op_class::SimdSha256Hash2               0      0.00%     96.00% # Class of executed instruction
system.cpu2.op_class::SimdShaSigma2                 0      0.00%     96.00% # Class of executed instruction
system.cpu2.op_class::SimdShaSigma3                 0      0.00%     96.00% # Class of executed instruction
system.cpu2.op_class::SimdPredAlu                   0      0.00%     96.00% # Class of executed instruction
system.cpu2.op_class::MemRead                       0      0.00%     96.00% # Class of executed instruction
system.cpu2.op_class::MemWrite                      0      0.00%     96.00% # Class of executed instruction
system.cpu2.op_class::FloatMemRead                  1      4.00%    100.00% # Class of executed instruction
system.cpu2.op_class::FloatMemWrite                 0      0.00%    100.00% # Class of executed instruction
system.cpu2.op_class::IprAccess                     0      0.00%    100.00% # Class of executed instruction
system.cpu2.op_class::InstPrefetch                  0      0.00%    100.00% # Class of executed instruction
system.cpu2.op_class::total                        25                       # Class of executed instruction
system.cpu2.workload.numSyscalls                    0                       # Number of system calls
system.cpu3.Branches                                3                       # Number of branches fetched
system.cpu3.committedInsts                         15                       # Number of instructions committed
system.cpu3.committedOps                           29                       # Number of ops (including micro ops) committed
system.cpu3.idle_fraction                           0                       # Percentage of idle cycles
system.cpu3.l2bus.snoop_filter.hit_multi_requests            2                       # Number of requests hitting in the snoop filter with multiple (>1) holders of the requested data.
system.cpu3.l2bus.snoop_filter.hit_multi_snoops            0                       # Number of snoops hitting in the snoop filter with multiple (>1) holders of the requested data.
system.cpu3.l2bus.snoop_filter.hit_single_requests        35007                       # Number of requests hitting in the snoop filter with a single holder of the requested data.
system.cpu3.l2bus.snoop_filter.hit_single_snoops          529                       # Number of snoops hitting in the snoop filter with a single holder of the requested data.
system.cpu3.l2bus.snoop_filter.tot_requests        70800                       # Total number of requests made to the snoop filter.
system.cpu3.l2bus.snoop_filter.tot_snoops          529                       # Total number of snoops made to the snoop filter.
system.cpu3.mmucache.mmubus.snoop_filter.hit_multi_requests            0                       # Number of requests hitting in the snoop filter with multiple (>1) holders of the requested data.
system.cpu3.mmucache.mmubus.snoop_filter.hit_multi_snoops            0                       # Number of snoops hitting in the snoop filter with multiple (>1) holders of the requested data.
system.cpu3.mmucache.mmubus.snoop_filter.hit_single_requests            0                       # Number of requests hitting in the snoop filter with a single holder of the requested data.
system.cpu3.mmucache.mmubus.snoop_filter.hit_single_snoops            0                       # Number of snoops hitting in the snoop filter with a single holder of the requested data.
system.cpu3.mmucache.mmubus.snoop_filter.tot_requests            0                       # Total number of requests made to the snoop filter.
system.cpu3.mmucache.mmubus.snoop_filter.tot_snoops            0                       # Total number of snoops made to the snoop filter.
system.cpu3.not_idle_fraction                       1                       # Percentage of non-idle cycles
system.cpu3.numCycles                              32                       # number of cpu cycles simulated
system.cpu3.numWorkItemsCompleted                   0                       # number of work items this cpu completed
system.cpu3.numWorkItemsStarted                     0                       # number of work items this cpu started
system.cpu3.num_busy_cycles                        32                       # Number of busy cycles
system.cpu3.num_cc_register_reads                  13                       # number of times the CC registers were read
system.cpu3.num_cc_register_writes                 19                       # number of times the CC registers were written
system.cpu3.num_conditional_control_insts            2                       # number of instructions that are conditional controls
system.cpu3.num_fp_alu_accesses                     0                       # Number of float alu accesses
system.cpu3.num_fp_insts                            0                       # number of float instructions
system.cpu3.num_fp_register_reads                   0                       # number of times the floating registers were read
system.cpu3.num_fp_register_writes                  0                       # number of times the floating registers were written
system.cpu3.num_func_calls                          0                       # number of times a function call or return occured
system.cpu3.num_idle_cycles                         0                       # Number of idle cycles
system.cpu3.num_int_alu_accesses                   29                       # Number of integer alu accesses
system.cpu3.num_int_insts                          29                       # number of integer instructions
system.cpu3.num_int_register_reads                 54                       # number of times the integer registers were read
system.cpu3.num_int_register_writes                26                       # number of times the integer registers were written
system.cpu3.num_load_insts                          3                       # Number of load instructions
system.cpu3.num_mem_refs                            4                       # number of memory refs
system.cpu3.num_store_insts                         1                       # Number of store instructions
system.cpu3.num_vec_alu_accesses                    0                       # Number of vector alu accesses
system.cpu3.num_vec_insts                           0                       # number of vector instructions
system.cpu3.num_vec_register_reads                  0                       # number of times the vector registers were read
system.cpu3.num_vec_register_writes                 0                       # number of times the vector registers were written
system.cpu3.op_class::No_OpClass                    0      0.00%      0.00% # Class of executed instruction
system.cpu3.op_class::IntAlu                       24     82.76%     82.76% # Class of executed instruction
system.cpu3.op_class::IntMult                       1      3.45%     86.21% # Class of executed instruction
system.cpu3.op_class::IntDiv                        0      0.00%     86.21% # Class of executed instruction
system.cpu3.op_class::FloatAdd                      0      0.00%     86.21% # Class of executed instruction
system.cpu3.op_class::FloatCmp                      0      0.00%     86.21% # Class of executed instruction
system.cpu3.op_class::FloatCvt                      0      0.00%     86.21% # Class of executed instruction
system.cpu3.op_class::FloatMult                     0      0.00%     86.21% # Class of executed instruction
system.cpu3.op_class::FloatMultAcc                  0      0.00%     86.21% # Class of executed instruction
system.cpu3.op_class::FloatDiv                      0      0.00%     86.21% # Class of executed instruction
system.cpu3.op_class::FloatMisc                     0      0.00%     86.21% # Class of executed instruction
system.cpu3.op_class::FloatSqrt                     0      0.00%     86.21% # Class of executed instruction
system.cpu3.op_class::SimdAdd                       0      0.00%     86.21% # Class of executed instruction
system.cpu3.op_class::SimdAddAcc                    0      0.00%     86.21% # Class of executed instruction
system.cpu3.op_class::SimdAlu                       0      0.00%     86.21% # Class of executed instruction
system.cpu3.op_class::SimdCmp                       0      0.00%     86.21% # Class of executed instruction
system.cpu3.op_class::SimdCvt                       0      0.00%     86.21% # Class of executed instruction
system.cpu3.op_class::SimdMisc                      0      0.00%     86.21% # Class of executed instruction
system.cpu3.op_class::SimdMult                      0      0.00%     86.21% # Class of executed instruction
system.cpu3.op_class::SimdMultAcc                   0      0.00%     86.21% # Class of executed instruction
system.cpu3.op_class::SimdShift                     0      0.00%     86.21% # Class of executed instruction
system.cpu3.op_class::SimdShiftAcc                  0      0.00%     86.21% # Class of executed instruction
system.cpu3.op_class::SimdDiv                       0      0.00%     86.21% # Class of executed instruction
system.cpu3.op_class::SimdSqrt                      0      0.00%     86.21% # Class of executed instruction
system.cpu3.op_class::SimdFloatAdd                  0      0.00%     86.21% # Class of executed instruction
system.cpu3.op_class::SimdFloatAlu                  0      0.00%     86.21% # Class of executed instruction
system.cpu3.op_class::SimdFloatCmp                  0      0.00%     86.21% # Class of executed instruction
system.cpu3.op_class::SimdFloatCvt                  0      0.00%     86.21% # Class of executed instruction
system.cpu3.op_class::SimdFloatDiv                  0      0.00%     86.21% # Class of executed instruction
system.cpu3.op_class::SimdFloatMisc                 0      0.00%     86.21% # Class of executed instruction
system.cpu3.op_class::SimdFloatMult                 0      0.00%     86.21% # Class of executed instruction
system.cpu3.op_class::SimdFloatMultAcc              0      0.00%     86.21% # Class of executed instruction
system.cpu3.op_class::SimdFloatSqrt                 0      0.00%     86.21% # Class of executed instruction
system.cpu3.op_class::SimdReduceAdd                 0      0.00%     86.21% # Class of executed instruction
system.cpu3.op_class::SimdReduceAlu                 0      0.00%     86.21% # Class of executed instruction
system.cpu3.op_class::SimdReduceCmp                 0      0.00%     86.21% # Class of executed instruction
system.cpu3.op_class::SimdFloatReduceAdd            0      0.00%     86.21% # Class of executed instruction
system.cpu3.op_class::SimdFloatReduceCmp            0      0.00%     86.21% # Class of executed instruction
system.cpu3.op_class::SimdAes                       0      0.00%     86.21% # Class of executed instruction
system.cpu3.op_class::SimdAesMix                    0      0.00%     86.21% # Class of executed instruction
system.cpu3.op_class::SimdSha1Hash                  0      0.00%     86.21% # Class of executed instruction
system.cpu3.op_class::SimdSha1Hash2                 0      0.00%     86.21% # Class of executed instruction
system.cpu3.op_class::SimdSha256Hash                0      0.00%     86.21% # Class of executed instruction
system.cpu3.op_class::SimdSha256Hash2               0      0.00%     86.21% # Class of executed instruction
system.cpu3.op_class::SimdShaSigma2                 0      0.00%     86.21% # Class of executed instruction
system.cpu3.op_class::SimdShaSigma3                 0      0.00%     86.21% # Class of executed instruction
system.cpu3.op_class::SimdPredAlu                   0      0.00%     86.21% # Class of executed instruction
system.cpu3.op_class::MemRead                       3     10.34%     96.55% # Class of executed instruction
system.cpu3.op_class::MemWrite                      1      3.45%    100.00% # Class of executed instruction
system.cpu3.op_class::FloatMemRead                  0      0.00%    100.00% # Class of executed instruction
system.cpu3.op_class::FloatMemWrite                 0      0.00%    100.00% # Class of executed instruction
system.cpu3.op_class::IprAccess                     0      0.00%    100.00% # Class of executed instruction
system.cpu3.op_class::InstPrefetch                  0      0.00%    100.00% # Class of executed instruction
system.cpu3.op_class::total                        29                       # Class of executed instruction
system.cpu3.workload.numSyscalls                    0                       # Number of system calls
system.l3bus.snoop_filter.hit_multi_requests            0                       # Number of requests hitting in the snoop filter with multiple (>1) holders of the requested data.
system.l3bus.snoop_filter.hit_multi_snoops            0                       # Number of snoops hitting in the snoop filter with multiple (>1) holders of the requested data.
system.l3bus.snoop_filter.hit_single_requests      1160349                       # Number of requests hitting in the snoop filter with a single holder of the requested data.
system.l3bus.snoop_filter.hit_single_snoops            0                       # Number of snoops hitting in the snoop filter with a single holder of the requested data.
system.l3bus.snoop_filter.tot_requests        2336163                       # Total number of requests made to the snoop filter.
system.l3bus.snoop_filter.tot_snoops                0                       # Total number of snoops made to the snoop filter.
system.membus.snoop_filter.hit_multi_requests            0                       # Number of requests hitting in the snoop filter with multiple (>1) holders of the requested data.
system.membus.snoop_filter.hit_multi_snoops            0                       # Number of snoops hitting in the snoop filter with multiple (>1) holders of the requested data.
system.membus.snoop_filter.hit_single_requests       621805                       # Number of requests hitting in the snoop filter with a single holder of the requested data.
system.membus.snoop_filter.hit_single_snoops            0                       # Number of snoops hitting in the snoop filter with a single holder of the requested data.
system.membus.snoop_filter.tot_requests       1321720                       # Total number of requests made to the snoop filter.
system.membus.snoop_filter.tot_snoops               0                       # Total number of snoops made to the snoop filter.
system.switch_cpus0.cc_regfile_reads        204896045                       # number of cc regfile reads
system.switch_cpus0.cc_regfile_writes       100636218                       # number of cc regfile writes
system.switch_cpus0.committedInsts          250000001                       # Number of Instructions Simulated
system.switch_cpus0.committedOps            450592832                       # Number of Ops (including micro ops) Simulated
system.switch_cpus0.cpi                      0.400196                       # CPI: Cycles Per Instruction
system.switch_cpus0.cpi_total                0.400196                       # CPI: Total CPI of All Threads
system.switch_cpus0.fp_regfile_reads        146843389                       # number of floating regfile reads
system.switch_cpus0.fp_regfile_writes        84294592                       # number of floating regfile writes
system.switch_cpus0.idleCycles                 106012                       # Total number of cycles that the CPU has spent unscheduled due to idling
system.switch_cpus0.iew.branchMispredicts      1080998                       # Number of branch mispredicts detected at execute
system.switch_cpus0.iew.exec_branches        46343309                       # Number of branches executed
system.switch_cpus0.iew.exec_nop                    0                       # number of nop insts executed
system.switch_cpus0.iew.exec_rate            4.803728                       # Inst execution rate
system.switch_cpus0.iew.exec_refs           140957888                       # number of memory reference insts executed
system.switch_cpus0.iew.exec_stores          42844494                       # Number of stores executed
system.switch_cpus0.iew.exec_swp                    0                       # number of swp insts executed
system.switch_cpus0.iew.iewBlockCycles        6360158                       # Number of cycles IEW is blocking
system.switch_cpus0.iew.iewDispLoadInsts    102920775                       # Number of dispatched load instructions
system.switch_cpus0.iew.iewDispNonSpecInsts            9                       # Number of dispatched non-speculative instructions
system.switch_cpus0.iew.iewDispSquashedInsts          415                       # Number of squashed instructions skipped by dispatch
system.switch_cpus0.iew.iewDispStoreInsts     45577622                       # Number of dispatched store instructions
system.switch_cpus0.iew.iewDispatchedInsts    503184728                       # Number of instructions dispatched to IQ
system.switch_cpus0.iew.iewExecLoadInsts     98113394                       # Number of load instructions executed
system.switch_cpus0.iew.iewExecSquashedInsts      2943612                       # Number of squashed instructions skipped in execute
system.switch_cpus0.iew.iewExecutedInsts    480607893                       # Number of executed instructions
system.switch_cpus0.iew.iewIQFullEvents         11005                       # Number of times the IQ has become full, causing a stall
system.switch_cpus0.iew.iewIdleCycles               0                       # Number of cycles IEW is idle
system.switch_cpus0.iew.iewLSQFullEvents       175798                       # Number of times the LSQ has become full, causing a stall
system.switch_cpus0.iew.iewSquashCycles        985561                       # Number of cycles IEW is squashing
system.switch_cpus0.iew.iewUnblockCycles       190727                       # Number of cycles IEW is unblocking
system.switch_cpus0.iew.memOrderViolationEvents        18387                       # Number of memory order violations
system.switch_cpus0.iew.predictedNotTakenIncorrect       700072                       # Number of branches that were predicted not taken incorrectly
system.switch_cpus0.iew.predictedTakenIncorrect       380926                       # Number of branches that were predicted taken incorrectly
system.switch_cpus0.iew.wb_consumers        628404431                       # num instructions consuming a value
system.switch_cpus0.iew.wb_count            478853504                       # cumulative count of insts written-back
system.switch_cpus0.iew.wb_fanout            0.567287                       # average fanout of values written-back
system.switch_cpus0.iew.wb_producers        356485700                       # num instructions producing a value
system.switch_cpus0.iew.wb_rate              4.786193                       # insts written-back per cycle
system.switch_cpus0.iew.wb_sent             480090469                       # cumulative count of insts sent to commit
system.switch_cpus0.int_regfile_reads       665328609                       # number of integer regfile reads
system.switch_cpus0.int_regfile_writes      299899133                       # number of integer regfile writes
system.switch_cpus0.ipc                      2.498777                       # IPC: Instructions Per Cycle
system.switch_cpus0.ipc_total                2.498777                       # IPC: Total IPC of All Threads
system.switch_cpus0.iq.FU_type_0::No_OpClass      2593530      0.54%      0.54% # Type of FU issued
system.switch_cpus0.iq.FU_type_0::IntAlu    289871957     59.95%     60.48% # Type of FU issued
system.switch_cpus0.iq.FU_type_0::IntMult       996965      0.21%     60.69% # Type of FU issued
system.switch_cpus0.iq.FU_type_0::IntDiv            0      0.00%     60.69% # Type of FU issued
system.switch_cpus0.iq.FU_type_0::FloatAdd      1282755      0.27%     60.95% # Type of FU issued
system.switch_cpus0.iq.FU_type_0::FloatCmp            0      0.00%     60.95% # Type of FU issued
system.switch_cpus0.iq.FU_type_0::FloatCvt            0      0.00%     60.95% # Type of FU issued
system.switch_cpus0.iq.FU_type_0::FloatMult            0      0.00%     60.95% # Type of FU issued
system.switch_cpus0.iq.FU_type_0::FloatMultAcc            0      0.00%     60.95% # Type of FU issued
system.switch_cpus0.iq.FU_type_0::FloatDiv            0      0.00%     60.95% # Type of FU issued
system.switch_cpus0.iq.FU_type_0::FloatMisc            0      0.00%     60.95% # Type of FU issued
system.switch_cpus0.iq.FU_type_0::FloatSqrt            0      0.00%     60.95% # Type of FU issued
system.switch_cpus0.iq.FU_type_0::SimdAdd            0      0.00%     60.95% # Type of FU issued
system.switch_cpus0.iq.FU_type_0::SimdAddAcc            0      0.00%     60.95% # Type of FU issued
system.switch_cpus0.iq.FU_type_0::SimdAlu      3080965      0.64%     61.59% # Type of FU issued
system.switch_cpus0.iq.FU_type_0::SimdCmp            0      0.00%     61.59% # Type of FU issued
system.switch_cpus0.iq.FU_type_0::SimdCvt            0      0.00%     61.59% # Type of FU issued
system.switch_cpus0.iq.FU_type_0::SimdMisc       203082      0.04%     61.63% # Type of FU issued
system.switch_cpus0.iq.FU_type_0::SimdMult            0      0.00%     61.63% # Type of FU issued
system.switch_cpus0.iq.FU_type_0::SimdMultAcc            0      0.00%     61.63% # Type of FU issued
system.switch_cpus0.iq.FU_type_0::SimdShift            0      0.00%     61.63% # Type of FU issued
system.switch_cpus0.iq.FU_type_0::SimdShiftAcc            0      0.00%     61.63% # Type of FU issued
system.switch_cpus0.iq.FU_type_0::SimdDiv            0      0.00%     61.63% # Type of FU issued
system.switch_cpus0.iq.FU_type_0::SimdSqrt            0      0.00%     61.63% # Type of FU issued
system.switch_cpus0.iq.FU_type_0::SimdFloatAdd     17405641      3.60%     65.23% # Type of FU issued
system.switch_cpus0.iq.FU_type_0::SimdFloatAlu            0      0.00%     65.23% # Type of FU issued
system.switch_cpus0.iq.FU_type_0::SimdFloatCmp        59472      0.01%     65.25% # Type of FU issued
system.switch_cpus0.iq.FU_type_0::SimdFloatCvt      7601797      1.57%     66.82% # Type of FU issued
system.switch_cpus0.iq.FU_type_0::SimdFloatDiv       597650      0.12%     66.94% # Type of FU issued
system.switch_cpus0.iq.FU_type_0::SimdFloatMisc            0      0.00%     66.94% # Type of FU issued
system.switch_cpus0.iq.FU_type_0::SimdFloatMult     17298284      3.58%     70.52% # Type of FU issued
system.switch_cpus0.iq.FU_type_0::SimdFloatMultAcc            0      0.00%     70.52% # Type of FU issued
system.switch_cpus0.iq.FU_type_0::SimdFloatSqrt        42880      0.01%     70.53% # Type of FU issued
system.switch_cpus0.iq.FU_type_0::SimdReduceAdd            0      0.00%     70.53% # Type of FU issued
system.switch_cpus0.iq.FU_type_0::SimdReduceAlu            0      0.00%     70.53% # Type of FU issued
system.switch_cpus0.iq.FU_type_0::SimdReduceCmp            0      0.00%     70.53% # Type of FU issued
system.switch_cpus0.iq.FU_type_0::SimdFloatReduceAdd            0      0.00%     70.53% # Type of FU issued
system.switch_cpus0.iq.FU_type_0::SimdFloatReduceCmp            0      0.00%     70.53% # Type of FU issued
system.switch_cpus0.iq.FU_type_0::SimdAes            0      0.00%     70.53% # Type of FU issued
system.switch_cpus0.iq.FU_type_0::SimdAesMix            0      0.00%     70.53% # Type of FU issued
system.switch_cpus0.iq.FU_type_0::SimdSha1Hash            0      0.00%     70.53% # Type of FU issued
system.switch_cpus0.iq.FU_type_0::SimdSha1Hash2            0      0.00%     70.53% # Type of FU issued
system.switch_cpus0.iq.FU_type_0::SimdSha256Hash            0      0.00%     70.53% # Type of FU issued
system.switch_cpus0.iq.FU_type_0::SimdSha256Hash2            0      0.00%     70.53% # Type of FU issued
system.switch_cpus0.iq.FU_type_0::SimdShaSigma2            0      0.00%     70.53% # Type of FU issued
system.switch_cpus0.iq.FU_type_0::SimdShaSigma3            0      0.00%     70.53% # Type of FU issued
system.switch_cpus0.iq.FU_type_0::SimdPredAlu            0      0.00%     70.53% # Type of FU issued
system.switch_cpus0.iq.FU_type_0::MemRead     61563867     12.73%     83.26% # Type of FU issued
system.switch_cpus0.iq.FU_type_0::MemWrite     36568759      7.56%     90.82% # Type of FU issued
system.switch_cpus0.iq.FU_type_0::FloatMemRead     37760364      7.81%     98.63% # Type of FU issued
system.switch_cpus0.iq.FU_type_0::FloatMemWrite      6623545      1.37%    100.00% # Type of FU issued
system.switch_cpus0.iq.FU_type_0::IprAccess            0      0.00%    100.00% # Type of FU issued
system.switch_cpus0.iq.FU_type_0::InstPrefetch            0      0.00%    100.00% # Type of FU issued
system.switch_cpus0.iq.FU_type_0::total     483551513                       # Type of FU issued
system.switch_cpus0.iq.fp_alu_accesses      103485527                       # Number of floating point alu accesses
system.switch_cpus0.iq.fp_inst_queue_reads    201958825                       # Number of floating instruction queue reads
system.switch_cpus0.iq.fp_inst_queue_wakeup_accesses     97038230                       # Number of floating instruction queue wakeup accesses
system.switch_cpus0.iq.fp_inst_queue_writes    108794535                       # Number of floating instruction queue writes
system.switch_cpus0.iq.fu_busy_cnt           13861769                       # FU busy when requested
system.switch_cpus0.iq.fu_busy_rate          0.028667                       # FU busy rate (busy events/executed inst)
system.switch_cpus0.iq.fu_full::No_OpClass            0      0.00%      0.00% # attempts to use FU when none available
system.switch_cpus0.iq.fu_full::IntAlu        4052638     29.24%     29.24% # attempts to use FU when none available
system.switch_cpus0.iq.fu_full::IntMult             0      0.00%     29.24% # attempts to use FU when none available
system.switch_cpus0.iq.fu_full::IntDiv              0      0.00%     29.24% # attempts to use FU when none available
system.switch_cpus0.iq.fu_full::FloatAdd        10048      0.07%     29.31% # attempts to use FU when none available
system.switch_cpus0.iq.fu_full::FloatCmp            0      0.00%     29.31% # attempts to use FU when none available
system.switch_cpus0.iq.fu_full::FloatCvt            0      0.00%     29.31% # attempts to use FU when none available
system.switch_cpus0.iq.fu_full::FloatMult            0      0.00%     29.31% # attempts to use FU when none available
system.switch_cpus0.iq.fu_full::FloatMultAcc            0      0.00%     29.31% # attempts to use FU when none available
system.switch_cpus0.iq.fu_full::FloatDiv            0      0.00%     29.31% # attempts to use FU when none available
system.switch_cpus0.iq.fu_full::FloatMisc            0      0.00%     29.31% # attempts to use FU when none available
system.switch_cpus0.iq.fu_full::FloatSqrt            0      0.00%     29.31% # attempts to use FU when none available
system.switch_cpus0.iq.fu_full::SimdAdd             0      0.00%     29.31% # attempts to use FU when none available
system.switch_cpus0.iq.fu_full::SimdAddAcc            0      0.00%     29.31% # attempts to use FU when none available
system.switch_cpus0.iq.fu_full::SimdAlu        207287      1.50%     30.80% # attempts to use FU when none available
system.switch_cpus0.iq.fu_full::SimdCmp             0      0.00%     30.80% # attempts to use FU when none available
system.switch_cpus0.iq.fu_full::SimdCvt             0      0.00%     30.80% # attempts to use FU when none available
system.switch_cpus0.iq.fu_full::SimdMisc            8      0.00%     30.80% # attempts to use FU when none available
system.switch_cpus0.iq.fu_full::SimdMult            0      0.00%     30.80% # attempts to use FU when none available
system.switch_cpus0.iq.fu_full::SimdMultAcc            0      0.00%     30.80% # attempts to use FU when none available
system.switch_cpus0.iq.fu_full::SimdShift            0      0.00%     30.80% # attempts to use FU when none available
system.switch_cpus0.iq.fu_full::SimdShiftAcc            0      0.00%     30.80% # attempts to use FU when none available
system.switch_cpus0.iq.fu_full::SimdDiv             0      0.00%     30.80% # attempts to use FU when none available
system.switch_cpus0.iq.fu_full::SimdSqrt            0      0.00%     30.80% # attempts to use FU when none available
system.switch_cpus0.iq.fu_full::SimdFloatAdd       499509      3.60%     34.41% # attempts to use FU when none available
system.switch_cpus0.iq.fu_full::SimdFloatAlu            0      0.00%     34.41% # attempts to use FU when none available
system.switch_cpus0.iq.fu_full::SimdFloatCmp            0      0.00%     34.41% # attempts to use FU when none available
system.switch_cpus0.iq.fu_full::SimdFloatCvt        51325      0.37%     34.78% # attempts to use FU when none available
system.switch_cpus0.iq.fu_full::SimdFloatDiv            0      0.00%     34.78% # attempts to use FU when none available
system.switch_cpus0.iq.fu_full::SimdFloatMisc            0      0.00%     34.78% # attempts to use FU when none available
system.switch_cpus0.iq.fu_full::SimdFloatMult       339190      2.45%     37.22% # attempts to use FU when none available
system.switch_cpus0.iq.fu_full::SimdFloatMultAcc            0      0.00%     37.22% # attempts to use FU when none available
system.switch_cpus0.iq.fu_full::SimdFloatSqrt            0      0.00%     37.22% # attempts to use FU when none available
system.switch_cpus0.iq.fu_full::SimdReduceAdd            0      0.00%     37.22% # attempts to use FU when none available
system.switch_cpus0.iq.fu_full::SimdReduceAlu            0      0.00%     37.22% # attempts to use FU when none available
system.switch_cpus0.iq.fu_full::SimdReduceCmp            0      0.00%     37.22% # attempts to use FU when none available
system.switch_cpus0.iq.fu_full::SimdFloatReduceAdd            0      0.00%     37.22% # attempts to use FU when none available
system.switch_cpus0.iq.fu_full::SimdFloatReduceCmp            0      0.00%     37.22% # attempts to use FU when none available
system.switch_cpus0.iq.fu_full::SimdAes             0      0.00%     37.22% # attempts to use FU when none available
system.switch_cpus0.iq.fu_full::SimdAesMix            0      0.00%     37.22% # attempts to use FU when none available
system.switch_cpus0.iq.fu_full::SimdSha1Hash            0      0.00%     37.22% # attempts to use FU when none available
system.switch_cpus0.iq.fu_full::SimdSha1Hash2            0      0.00%     37.22% # attempts to use FU when none available
system.switch_cpus0.iq.fu_full::SimdSha256Hash            0      0.00%     37.22% # attempts to use FU when none available
system.switch_cpus0.iq.fu_full::SimdSha256Hash2            0      0.00%     37.22% # attempts to use FU when none available
system.switch_cpus0.iq.fu_full::SimdShaSigma2            0      0.00%     37.22% # attempts to use FU when none available
system.switch_cpus0.iq.fu_full::SimdShaSigma3            0      0.00%     37.22% # attempts to use FU when none available
system.switch_cpus0.iq.fu_full::SimdPredAlu            0      0.00%     37.22% # attempts to use FU when none available
system.switch_cpus0.iq.fu_full::MemRead       3360673     24.24%     61.47% # attempts to use FU when none available
system.switch_cpus0.iq.fu_full::MemWrite      1160997      8.38%     69.84% # attempts to use FU when none available
system.switch_cpus0.iq.fu_full::FloatMemRead      3615550     26.08%     95.93% # attempts to use FU when none available
system.switch_cpus0.iq.fu_full::FloatMemWrite       564544      4.07%    100.00% # attempts to use FU when none available
system.switch_cpus0.iq.fu_full::IprAccess            0      0.00%    100.00% # attempts to use FU when none available
system.switch_cpus0.iq.fu_full::InstPrefetch            0      0.00%    100.00% # attempts to use FU when none available
system.switch_cpus0.iq.int_alu_accesses     391334225                       # Number of integer alu accesses
system.switch_cpus0.iq.int_inst_queue_reads    879760036                       # Number of integer instruction queue reads
system.switch_cpus0.iq.int_inst_queue_wakeup_accesses    381815274                       # Number of integer instruction queue wakeup accesses
system.switch_cpus0.iq.int_inst_queue_writes    447000153                       # Number of integer instruction queue writes
system.switch_cpus0.iq.iqInstsAdded         503184715                       # Number of instructions added to the IQ (excludes non-spec)
system.switch_cpus0.iq.iqInstsIssued        483551513                       # Number of instructions issued
system.switch_cpus0.iq.iqNonSpecInstsAdded           13                       # Number of non-speculative instructions added to the IQ
system.switch_cpus0.iq.iqSquashedInstsExamined     52591816                       # Number of squashed instructions iterated over during squash; mainly for profiling
system.switch_cpus0.iq.iqSquashedInstsIssued       811153                       # Number of squashed instructions issued
system.switch_cpus0.iq.iqSquashedNonSpecRemoved            9                       # Number of squashed non-spec instructions that were removed
system.switch_cpus0.iq.iqSquashedOperandsExamined     75307828                       # Number of squashed operands that are examined and possibly removed from graph
system.switch_cpus0.iq.issued_per_cycle::samples     99942921                       # Number of insts issued each cycle
system.switch_cpus0.iq.issued_per_cycle::mean     4.838277                       # Number of insts issued each cycle
system.switch_cpus0.iq.issued_per_cycle::stdev     2.689590                       # Number of insts issued each cycle
system.switch_cpus0.iq.issued_per_cycle::underflows            0      0.00%      0.00% # Number of insts issued each cycle
system.switch_cpus0.iq.issued_per_cycle::0     13960047     13.97%     13.97% # Number of insts issued each cycle
system.switch_cpus0.iq.issued_per_cycle::1      2649962      2.65%     16.62% # Number of insts issued each cycle
system.switch_cpus0.iq.issued_per_cycle::2      5169988      5.17%     21.79% # Number of insts issued each cycle
system.switch_cpus0.iq.issued_per_cycle::3      6931164      6.94%     28.73% # Number of insts issued each cycle
system.switch_cpus0.iq.issued_per_cycle::4      9595304      9.60%     38.33% # Number of insts issued each cycle
system.switch_cpus0.iq.issued_per_cycle::5     12319284     12.33%     50.65% # Number of insts issued each cycle
system.switch_cpus0.iq.issued_per_cycle::6     15110196     15.12%     65.77% # Number of insts issued each cycle
system.switch_cpus0.iq.issued_per_cycle::7     14526537     14.53%     80.31% # Number of insts issued each cycle
system.switch_cpus0.iq.issued_per_cycle::8     19680439     19.69%    100.00% # Number of insts issued each cycle
system.switch_cpus0.iq.issued_per_cycle::overflows            0      0.00%    100.00% # Number of insts issued each cycle
system.switch_cpus0.iq.issued_per_cycle::min_value            0                       # Number of insts issued each cycle
system.switch_cpus0.iq.issued_per_cycle::max_value            8                       # Number of insts issued each cycle
system.switch_cpus0.iq.issued_per_cycle::total     99942921                       # Number of insts issued each cycle
system.switch_cpus0.iq.rate                  4.833150                       # Inst issue rate
system.switch_cpus0.iq.vec_alu_accesses             0                       # Number of vector alu accesses
system.switch_cpus0.iq.vec_inst_queue_reads            0                       # Number of vector instruction queue reads
system.switch_cpus0.iq.vec_inst_queue_wakeup_accesses            0                       # Number of vector instruction queue wakeup accesses
system.switch_cpus0.iq.vec_inst_queue_writes            0                       # Number of vector instruction queue writes
system.switch_cpus0.memDep0.conflictingLoads      5429364                       # Number of conflicting loads.
system.switch_cpus0.memDep0.conflictingStores      2511546                       # Number of conflicting stores.
system.switch_cpus0.memDep0.insertedLoads    102920775                       # Number of loads inserted to the mem dependence unit.
system.switch_cpus0.memDep0.insertedStores     45577622                       # Number of stores inserted to the mem dependence unit.
system.switch_cpus0.misc_regfile_reads      236720655                       # number of misc regfile reads
system.switch_cpus0.misc_regfile_writes             9                       # number of misc regfile writes
system.switch_cpus0.numCycles               100048933                       # number of cpu cycles simulated
system.switch_cpus0.numWorkItemsCompleted            0                       # number of work items this cpu completed
system.switch_cpus0.numWorkItemsStarted             0                       # number of work items this cpu started
system.switch_cpus0.timesIdled                    383                       # Number of times that the entire CPU went into an idle state and unscheduled itself
system.switch_cpus1.cc_regfile_reads         45907074                       # number of cc regfile reads
system.switch_cpus1.cc_regfile_writes        37280949                       # number of cc regfile writes
system.switch_cpus1.committedInsts           92028907                       # Number of Instructions Simulated
system.switch_cpus1.committedOps            145553734                       # Number of Ops (including micro ops) Simulated
system.switch_cpus1.cpi                      1.087147                       # CPI: Cycles Per Instruction
system.switch_cpus1.cpi_total                1.087147                       # CPI: Total CPI of All Threads
system.switch_cpus1.fp_regfile_reads        114190621                       # number of floating regfile reads
system.switch_cpus1.fp_regfile_writes        57126020                       # number of floating regfile writes
system.switch_cpus1.idleCycles                  44325                       # Total number of cycles that the CPU has spent unscheduled due to idling
system.switch_cpus1.iew.branchMispredicts         8834                       # Number of branch mispredicts detected at execute
system.switch_cpus1.iew.exec_branches        10142831                       # Number of branches executed
system.switch_cpus1.iew.exec_nop                    0                       # number of nop insts executed
system.switch_cpus1.iew.exec_rate            1.456032                       # Inst execution rate
system.switch_cpus1.iew.exec_refs            33982049                       # number of memory reference insts executed
system.switch_cpus1.iew.exec_stores           9596712                       # Number of stores executed
system.switch_cpus1.iew.exec_swp                    0                       # number of swp insts executed
system.switch_cpus1.iew.iewBlockCycles       23075467                       # Number of cycles IEW is blocking
system.switch_cpus1.iew.iewDispLoadInsts     24404060                       # Number of dispatched load instructions
system.switch_cpus1.iew.iewDispNonSpecInsts            3                       # Number of dispatched non-speculative instructions
system.switch_cpus1.iew.iewDispSquashedInsts          513                       # Number of squashed instructions skipped by dispatch
system.switch_cpus1.iew.iewDispStoreInsts      9613598                       # Number of dispatched store instructions
system.switch_cpus1.iew.iewDispatchedInsts    145795704                       # Number of instructions dispatched to IQ
system.switch_cpus1.iew.iewExecLoadInsts     24385337                       # Number of load instructions executed
system.switch_cpus1.iew.iewExecSquashedInsts        21403                       # Number of squashed instructions skipped in execute
system.switch_cpus1.iew.iewExecutedInsts    145674467                       # Number of executed instructions
system.switch_cpus1.iew.iewIQFullEvents         88112                       # Number of times the IQ has become full, causing a stall
system.switch_cpus1.iew.iewIdleCycles               0                       # Number of cycles IEW is idle
system.switch_cpus1.iew.iewLSQFullEvents     11436530                       # Number of times the LSQ has become full, causing a stall
system.switch_cpus1.iew.iewSquashCycles          9323                       # Number of cycles IEW is squashing
system.switch_cpus1.iew.iewUnblockCycles     11593010                       # Number of cycles IEW is unblocking
system.switch_cpus1.iew.memOrderViolationEvents          608                       # Number of memory order violations
system.switch_cpus1.iew.predictedNotTakenIncorrect         1785                       # Number of branches that were predicted not taken incorrectly
system.switch_cpus1.iew.predictedTakenIncorrect         7049                       # Number of branches that were predicted taken incorrectly
system.switch_cpus1.iew.wb_consumers        180842268                       # num instructions consuming a value
system.switch_cpus1.iew.wb_count            145651088                       # cumulative count of insts written-back
system.switch_cpus1.iew.wb_fanout            0.605430                       # average fanout of values written-back
system.switch_cpus1.iew.wb_producers        109487283                       # num instructions producing a value
system.switch_cpus1.iew.wb_rate              1.455799                       # insts written-back per cycle
system.switch_cpus1.iew.wb_sent             145661670                       # cumulative count of insts sent to commit
system.switch_cpus1.int_regfile_reads       142004601                       # number of integer regfile reads
system.switch_cpus1.int_regfile_writes       66444049                       # number of integer regfile writes
system.switch_cpus1.ipc                      0.919839                       # IPC: Instructions Per Cycle
system.switch_cpus1.ipc_total                0.919839                       # IPC: Total IPC of All Threads
system.switch_cpus1.iq.FU_type_0::No_OpClass         7309      0.01%      0.01% # Type of FU issued
system.switch_cpus1.iq.FU_type_0::IntAlu     77830298     53.42%     53.42% # Type of FU issued
system.switch_cpus1.iq.FU_type_0::IntMult         2714      0.00%     53.43% # Type of FU issued
system.switch_cpus1.iq.FU_type_0::IntDiv            0      0.00%     53.43% # Type of FU issued
system.switch_cpus1.iq.FU_type_0::FloatAdd      2606722      1.79%     55.22% # Type of FU issued
system.switch_cpus1.iq.FU_type_0::FloatCmp            0      0.00%     55.22% # Type of FU issued
system.switch_cpus1.iq.FU_type_0::FloatCvt            0      0.00%     55.22% # Type of FU issued
system.switch_cpus1.iq.FU_type_0::FloatMult            0      0.00%     55.22% # Type of FU issued
system.switch_cpus1.iq.FU_type_0::FloatMultAcc            0      0.00%     55.22% # Type of FU issued
system.switch_cpus1.iq.FU_type_0::FloatDiv            0      0.00%     55.22% # Type of FU issued
system.switch_cpus1.iq.FU_type_0::FloatMisc            0      0.00%     55.22% # Type of FU issued
system.switch_cpus1.iq.FU_type_0::FloatSqrt            0      0.00%     55.22% # Type of FU issued
system.switch_cpus1.iq.FU_type_0::SimdAdd            0      0.00%     55.22% # Type of FU issued
system.switch_cpus1.iq.FU_type_0::SimdAddAcc            0      0.00%     55.22% # Type of FU issued
system.switch_cpus1.iq.FU_type_0::SimdAlu      3130839      2.15%     57.36% # Type of FU issued
system.switch_cpus1.iq.FU_type_0::SimdCmp            0      0.00%     57.36% # Type of FU issued
system.switch_cpus1.iq.FU_type_0::SimdCvt            0      0.00%     57.36% # Type of FU issued
system.switch_cpus1.iq.FU_type_0::SimdMisc      1566133      1.07%     58.44% # Type of FU issued
system.switch_cpus1.iq.FU_type_0::SimdMult            0      0.00%     58.44% # Type of FU issued
system.switch_cpus1.iq.FU_type_0::SimdMultAcc            0      0.00%     58.44% # Type of FU issued
system.switch_cpus1.iq.FU_type_0::SimdShift            0      0.00%     58.44% # Type of FU issued
system.switch_cpus1.iq.FU_type_0::SimdShiftAcc            0      0.00%     58.44% # Type of FU issued
system.switch_cpus1.iq.FU_type_0::SimdDiv            0      0.00%     58.44% # Type of FU issued
system.switch_cpus1.iq.FU_type_0::SimdSqrt            0      0.00%     58.44% # Type of FU issued
system.switch_cpus1.iq.FU_type_0::SimdFloatAdd     10628070      7.29%     65.73% # Type of FU issued
system.switch_cpus1.iq.FU_type_0::SimdFloatAlu            0      0.00%     65.73% # Type of FU issued
system.switch_cpus1.iq.FU_type_0::SimdFloatCmp       376832      0.26%     65.99% # Type of FU issued
system.switch_cpus1.iq.FU_type_0::SimdFloatCvt      2346783      1.61%     67.60% # Type of FU issued
system.switch_cpus1.iq.FU_type_0::SimdFloatDiv      2361852      1.62%     69.22% # Type of FU issued
system.switch_cpus1.iq.FU_type_0::SimdFloatMisc            0      0.00%     69.22% # Type of FU issued
system.switch_cpus1.iq.FU_type_0::SimdFloatMult     10435319      7.16%     76.39% # Type of FU issued
system.switch_cpus1.iq.FU_type_0::SimdFloatMultAcc            0      0.00%     76.39% # Type of FU issued
system.switch_cpus1.iq.FU_type_0::SimdFloatSqrt       409602      0.28%     76.67% # Type of FU issued
system.switch_cpus1.iq.FU_type_0::SimdReduceAdd            0      0.00%     76.67% # Type of FU issued
system.switch_cpus1.iq.FU_type_0::SimdReduceAlu            0      0.00%     76.67% # Type of FU issued
system.switch_cpus1.iq.FU_type_0::SimdReduceCmp            0      0.00%     76.67% # Type of FU issued
system.switch_cpus1.iq.FU_type_0::SimdFloatReduceAdd            0      0.00%     76.67% # Type of FU issued
system.switch_cpus1.iq.FU_type_0::SimdFloatReduceCmp            0      0.00%     76.67% # Type of FU issued
[...]
system.switch_cpus3.commit.numCommittedDist::0     18483494     19.68%     19.68% # Number of insts commited each cycle
system.switch_cpus3.commit.numCommittedDist::1      8851692      9.43%     29.11% # Number of insts commited each cycle
system.switch_cpus3.commit.numCommittedDist::2     12561402     13.38%     42.49% # Number of insts commited each cycle
system.switch_cpus3.commit.numCommittedDist::3      5743691      6.12%     48.61% # Number of insts commited each cycle
system.switch_cpus3.commit.numCommittedDist::4      9687142     10.32%     58.92% # Number of insts commited each cycle
system.switch_cpus3.commit.numCommittedDist::5      3671556      3.91%     62.83% # Number of insts commited each cycle
system.switch_cpus3.commit.numCommittedDist::6      1845506      1.97%     64.80% # Number of insts commited each cycle
system.switch_cpus3.commit.numCommittedDist::7       681533      0.73%     65.52% # Number of insts commited each cycle
system.switch_cpus3.commit.numCommittedDist::8     32372986     34.48%    100.00% # Number of insts commited each cycle
system.switch_cpus3.commit.numCommittedDist::overflows            0      0.00%    100.00% # Number of insts commited each cycle
system.switch_cpus3.commit.numCommittedDist::min_value            0                       # Number of insts commited each cycle
system.switch_cpus3.commit.numCommittedDist::max_value            8                       # Number of insts commited each cycle
system.switch_cpus3.commit.numCommittedDist::total     93899002                       # Number of insts commited each cycle
system.switch_cpus3.commit.instsCommitted    205285427                       # Number of instructions committed
system.switch_cpus3.commit.opsCommitted     383139572                       # Number of ops (including micro ops) committed
system.switch_cpus3.commit.memRefs           61932241                       # Number of memory references committed
system.switch_cpus3.commit.loads             52892841                       # Number of loads committed
system.switch_cpus3.commit.amos                     0                       # Number of atomic instructions committed
system.switch_cpus3.commit.membars                  0                       # Number of memory barriers committed
system.switch_cpus3.commit.branches          31152270                       # Number of branches committed
system.switch_cpus3.commit.vector                   0                       # Number of committed Vector instructions.
system.switch_cpus3.commit.floating          10031477                       # Number of committed floating point instructions.
system.switch_cpus3.commit.integer          376797889                       # Number of committed integer instructions.
system.switch_cpus3.commit.functionCalls       313398                       # Number of function calls committed.
system.switch_cpus3.commit.committedInstType_0::No_OpClass      1653704      0.43%      0.43% # Class of committed instruction
system.switch_cpus3.commit.committedInstType_0::IntAlu    298222299     77.84%     78.27% # Class of committed instruction
system.switch_cpus3.commit.committedInstType_0::IntMult     17947734      4.68%     82.95% # Class of committed instruction
system.switch_cpus3.commit.committedInstType_0::IntDiv        31619      0.01%     82.96% # Class of committed instruction
system.switch_cpus3.commit.committedInstType_0::FloatAdd       401700      0.10%     83.07% # Class of committed instruction
system.switch_cpus3.commit.committedInstType_0::FloatCmp            0      0.00%     83.07% # Class of committed instruction
system.switch_cpus3.commit.committedInstType_0::FloatCvt            0      0.00%     83.07% # Class of committed instruction
system.switch_cpus3.commit.committedInstType_0::FloatMult            0      0.00%     83.07% # Class of committed instruction
system.switch_cpus3.commit.committedInstType_0::FloatMultAcc            0      0.00%     83.07% # Class of committed instruction
system.switch_cpus3.commit.committedInstType_0::FloatDiv            0      0.00%     83.07% # Class of committed instruction
system.switch_cpus3.commit.committedInstType_0::FloatMisc            0      0.00%     83.07% # Class of committed instruction
system.switch_cpus3.commit.committedInstType_0::FloatSqrt            0      0.00%     83.07% # Class of committed instruction
system.switch_cpus3.commit.committedInstType_0::SimdAdd            0      0.00%     83.07% # Class of committed instruction
system.switch_cpus3.commit.committedInstType_0::SimdAddAcc            0      0.00%     83.07% # Class of committed instruction
system.switch_cpus3.commit.committedInstType_0::SimdAlu       383332      0.10%     83.17% # Class of committed instruction
system.switch_cpus3.commit.committedInstType_0::SimdCmp            0      0.00%     83.17% # Class of committed instruction
system.switch_cpus3.commit.committedInstType_0::SimdCvt            0      0.00%     83.17% # Class of committed instruction
system.switch_cpus3.commit.committedInstType_0::SimdMisc       578718      0.15%     83.32% # Class of committed instruction
system.switch_cpus3.commit.committedInstType_0::SimdMult            0      0.00%     83.32% # Class of committed instruction
system.switch_cpus3.commit.committedInstType_0::SimdMultAcc            0      0.00%     83.32% # Class of committed instruction
system.switch_cpus3.commit.committedInstType_0::SimdShift            0      0.00%     83.32% # Class of committed instruction
system.switch_cpus3.commit.committedInstType_0::SimdShiftAcc            0      0.00%     83.32% # Class of committed instruction
system.switch_cpus3.commit.committedInstType_0::SimdDiv            0      0.00%     83.32% # Class of committed instruction
system.switch_cpus3.commit.committedInstType_0::SimdSqrt            0      0.00%     83.32% # Class of committed instruction
system.switch_cpus3.commit.committedInstType_0::SimdFloatAdd       693360      0.18%     83.50% # Class of committed instruction
system.switch_cpus3.commit.committedInstType_0::SimdFloatAlu            0      0.00%     83.50% # Class of committed instruction
system.switch_cpus3.commit.committedInstType_0::SimdFloatCmp            0      0.00%     83.50% # Class of committed instruction
system.switch_cpus3.commit.committedInstType_0::SimdFloatCvt       367709      0.10%     83.59% # Class of committed instruction
system.switch_cpus3.commit.committedInstType_0::SimdFloatDiv       175447      0.05%     83.64% # Class of committed instruction
system.switch_cpus3.commit.committedInstType_0::SimdFloatMisc            0      0.00%     83.64% # Class of committed instruction
system.switch_cpus3.commit.committedInstType_0::SimdFloatMult       751264      0.20%     83.84% # Class of committed instruction
system.switch_cpus3.commit.committedInstType_0::SimdFloatMultAcc            0      0.00%     83.84% # Class of committed instruction
system.switch_cpus3.commit.committedInstType_0::SimdFloatSqrt          445      0.00%     83.84% # Class of committed instruction
system.switch_cpus3.commit.committedInstType_0::SimdReduceAdd            0      0.00%     83.84% # Class of committed instruction
system.switch_cpus3.commit.committedInstType_0::SimdReduceAlu            0      0.00%     83.84% # Class of committed instruction
system.switch_cpus3.commit.committedInstType_0::SimdReduceCmp            0      0.00%     83.84% # Class of committed instruction
system.switch_cpus3.commit.committedInstType_0::SimdFloatReduceAdd            0      0.00%     83.84% # Class of committed instruction
system.switch_cpus3.commit.committedInstType_0::SimdFloatReduceCmp            0      0.00%     83.84% # Class of committed instruction
system.switch_cpus3.commit.committedInstType_0::SimdAes            0      0.00%     83.84% # Class of committed instruction
system.switch_cpus3.commit.committedInstType_0::SimdAesMix            0      0.00%     83.84% # Class of committed instruction
system.switch_cpus3.commit.committedInstType_0::SimdSha1Hash            0      0.00%     83.84% # Class of committed instruction
system.switch_cpus3.commit.committedInstType_0::SimdSha1Hash2            0      0.00%     83.84% # Class of committed instruction
system.switch_cpus3.commit.committedInstType_0::SimdSha256Hash            0      0.00%     83.84% # Class of committed instruction
system.switch_cpus3.commit.committedInstType_0::SimdSha256Hash2            0      0.00%     83.84% # Class of committed instruction
system.switch_cpus3.commit.committedInstType_0::SimdShaSigma2            0      0.00%     83.84% # Class of committed instruction
system.switch_cpus3.commit.committedInstType_0::SimdShaSigma3            0      0.00%     83.84% # Class of committed instruction
system.switch_cpus3.commit.committedInstType_0::SimdPredAlu            0      0.00%     83.84% # Class of committed instruction
system.switch_cpus3.commit.committedInstType_0::MemRead     50383011     13.15%     96.99% # Class of committed instruction
system.switch_cpus3.commit.committedInstType_0::MemWrite      5801014      1.51%     98.50% # Class of committed instruction
system.switch_cpus3.commit.committedInstType_0::FloatMemRead      2509830      0.66%     99.15% # Class of committed instruction
system.switch_cpus3.commit.committedInstType_0::FloatMemWrite      3238386      0.85%    100.00% # Class of committed instruction
system.switch_cpus3.commit.committedInstType_0::IprAccess            0      0.00%    100.00% # Class of committed instruction
system.switch_cpus3.commit.committedInstType_0::InstPrefetch            0      0.00%    100.00% # Class of committed instruction
system.switch_cpus3.commit.committedInstType_0::total    383139572                       # Class of committed instruction
system.switch_cpus3.commit.commitEligibleSamples     32372986                       # number cycles where commit BW limit reached
system.switch_cpus3.decode.idleCycles         5917447                       # Number of cycles decode is idle
system.switch_cpus3.decode.blockedCycles     18940007                       # Number of cycles decode is blocked
system.switch_cpus3.decode.runCycles         67704612                       # Number of cycles decode is running
system.switch_cpus3.decode.unblockCycles      5796054                       # Number of cycles decode is unblocking
system.switch_cpus3.decode.squashCycles       1639278                       # Number of cycles decode is squashing
system.switch_cpus3.decode.branchResolved     25994907                       # Number of times decode resolved a  branch
system.switch_cpus3.decode.branchMispred        87388                       # Number of times decode detected a branch misprediction
system.switch_cpus3.decode.decodedInsts     454310956                       # Number of instructions handled by decode
system.switch_cpus3.decode.squashedInsts       552104                       # Number of squashed instructions handled by decode
system.switch_cpus3.dtb.rdAccesses           56698651                       # TLB accesses on read requests
system.switch_cpus3.dtb.wrAccesses            9423764                       # TLB accesses on write requests
system.switch_cpus3.dtb.rdMisses                  137                       # TLB misses on read requests
system.switch_cpus3.dtb.wrMisses                  438                       # TLB misses on write requests
system.switch_cpus3.dtb.walker.power_state.pwrStateResidencyTicks::UNDEFINED 15684573423636                       # Cumulative time (in ticks) in various power states
system.switch_cpus3.fetch.icacheStallCycles      1201531                       # Number of cycles fetch is stalled on an Icache miss
system.switch_cpus3.fetch.insts             255215985                       # Number of instructions fetch has processed
system.switch_cpus3.fetch.branches           39137514                       # Number of branches that fetch encountered
system.switch_cpus3.fetch.predictedBranches     27713189                       # Number of branches that fetch has predicted taken
system.switch_cpus3.fetch.cycles             97071886                       # Number of cycles fetch has run and was not squashing or blocked
system.switch_cpus3.fetch.squashCycles        3447930                       # Number of cycles fetch has spent squashing
system.switch_cpus3.fetch.miscStallCycles            2                       # Number of cycles fetch has spent waiting on interrupts,or bad addresses, or out of MSHRs
system.switch_cpus3.fetch.pendingTrapStallCycles           21                       # Number of stall cycles due to pending traps
system.switch_cpus3.fetch.cacheLines         39193422                       # Number of cache lines fetched
system.switch_cpus3.fetch.icacheSquashes          148                       # Number of outstanding Icache misses that were squashed
system.switch_cpus3.fetch.nisnDist::samples     99997405                       # Number of instructions fetched each cycle (Total)
system.switch_cpus3.fetch.nisnDist::mean     4.732740                       # Number of instructions fetched each cycle (Total)
system.switch_cpus3.fetch.nisnDist::stdev     3.108211                       # Number of instructions fetched each cycle (Total)
system.switch_cpus3.fetch.nisnDist::underflows            0      0.00%      0.00% # Number of instructions fetched each cycle (Total)
system.switch_cpus3.fetch.nisnDist::0        16921981     16.92%     16.92% # Number of instructions fetched each cycle (Total)
system.switch_cpus3.fetch.nisnDist::1         1621245      1.62%     18.54% # Number of instructions fetched each cycle (Total)
system.switch_cpus3.fetch.nisnDist::2        15609164     15.61%     34.15% # Number of instructions fetched each cycle (Total)
system.switch_cpus3.fetch.nisnDist::3         1753570      1.75%     35.91% # Number of instructions fetched each cycle (Total)
system.switch_cpus3.fetch.nisnDist::4        12244658     12.24%     48.15% # Number of instructions fetched each cycle (Total)
system.switch_cpus3.fetch.nisnDist::5         6281739      6.28%     54.43% # Number of instructions fetched each cycle (Total)
system.switch_cpus3.fetch.nisnDist::6         1565136      1.57%     56.00% # Number of instructions fetched each cycle (Total)
system.switch_cpus3.fetch.nisnDist::7         6616047      6.62%     62.62% # Number of instructions fetched each cycle (Total)
system.switch_cpus3.fetch.nisnDist::8        37383865     37.38%    100.00% # Number of instructions fetched each cycle (Total)
system.switch_cpus3.fetch.nisnDist::overflows            0      0.00%    100.00% # Number of instructions fetched each cycle (Total)
system.switch_cpus3.fetch.nisnDist::min_value            0                       # Number of instructions fetched each cycle (Total)
system.switch_cpus3.fetch.nisnDist::max_value            8                       # Number of instructions fetched each cycle (Total)
system.switch_cpus3.fetch.nisnDist::total     99997405                       # Number of instructions fetched each cycle (Total)
system.switch_cpus3.fetch.branchRate         0.391184                       # Number of branch fetches per cycle
system.switch_cpus3.fetch.rate               2.550912                       # Number of inst fetches per cycle
system.switch_cpus3.itb.rdAccesses                  0                       # TLB accesses on read requests
system.switch_cpus3.itb.wrAccesses           39193425                       # TLB accesses on write requests
system.switch_cpus3.itb.rdMisses                    0                       # TLB misses on read requests
system.switch_cpus3.itb.wrMisses                   17                       # TLB misses on write requests
system.switch_cpus3.itb.walker.power_state.pwrStateResidencyTicks::UNDEFINED 15684573423636                       # Cumulative time (in ticks) in various power states
system.switch_cpus3.lsq0.forwLoads             777509                       # Number of loads that had data forwarded from stores
system.switch_cpus3.lsq0.squashedLoads        5367371                       # Number of loads squashed
system.switch_cpus3.lsq0.ignoredResponses          990                       # Number of memory responses ignored because the instruction is squashed
system.switch_cpus3.lsq0.memOrderViolation        17362                       # Number of memory ordering violations
system.switch_cpus3.lsq0.squashedStores       1421047                       # Number of stores squashed
system.switch_cpus3.lsq0.rescheduledLoads            1                       # Number of loads that were rescheduled
system.switch_cpus3.lsq0.blockedByCache             0                       # Number of times an access to memory failed due to the cache being blocked
system.switch_cpus3.power_state.pwrStateResidencyTicks::OFF  33316305345                       # Cumulative time (in ticks) in various power states
system.switch_cpus3.rename.squashCycles       1639278                       # Number of cycles rename is squashing
system.switch_cpus3.rename.idleCycles         8720815                       # Number of cycles rename is idle
system.switch_cpus3.rename.blockCycles        8212630                       # Number of cycles rename is blocking
system.switch_cpus3.rename.serializeStallCycles            0                       # count of cycles rename stalledfor serializing inst
system.switch_cpus3.rename.runCycles         70143813                       # Number of cycles rename is running
system.switch_cpus3.rename.unblockCycles     11280860                       # Number of cycles rename is unblocking
system.switch_cpus3.rename.renamedInsts     442866295                       # Number of instructions processed by rename
system.switch_cpus3.rename.ROBFullEvents       182791                       # Number of times rename has blocked due to ROB full
system.switch_cpus3.rename.IQFullEvents       1992389                       # Number of times rename has blocked due to IQ full
system.switch_cpus3.rename.LQFullEvents        575688                       # Number of times rename has blocked due to LQ full
system.switch_cpus3.rename.SQFullEvents       6993648                       # Number of times rename has blocked due to SQ full
system.switch_cpus3.rename.renamedOperands    672209954                       # Number of destination operands rename has renamed
system.switch_cpus3.rename.lookups          970931890                       # Number of register rename lookups that rename has made
system.switch_cpus3.rename.intLookups       635678028                       # Number of integer rename lookups
system.switch_cpus3.rename.fpLookups         13546616                       # Number of floating rename lookups
system.switch_cpus3.rename.committedMaps    584653022                       # Number of HB maps that are committed
system.switch_cpus3.rename.undoneMaps        87556674                       # Number of HB maps that are undone due to squashing
system.switch_cpus3.rename.serializing              0                       # count of serializing insts renamed
system.switch_cpus3.rename.tempSerializing            0                       # count of temporary serializing insts renamed
system.switch_cpus3.rename.skidInsts         15894079                       # count of insts added to the skid buffer
system.switch_cpus3.rob.reads               485945238                       # The number of ROB reads
system.switch_cpus3.rob.writes              854952920                       # The number of ROB writes
system.switch_cpus3.thread0.numInsts        205285427                       # Number of Instructions committed
system.switch_cpus3.thread0.numOps          383139572                       # Number of Ops committed
system.switch_cpus3.thread0.numMemRefs              0                       # Number of Memory References
system.voltage_domain.voltage                       1                       # Voltage in Volts

---------- End Simulation Statistics   ----------
