
---------- Begin Simulation Statistics ----------
final_tick                               18790147929780                       # Number of ticks from beginning of simulation (restored from checkpoints and never reset)
host_inst_rate                                  71936                       # Simulator instruction rate (inst/s)
host_mem_usage                               17865360                       # Number of bytes of host memory used
host_op_rate                                   128446                       # Simulator op (including micro ops) rate (op/s)
host_seconds                                 13473.68                       # Real time elapsed on the host
host_tick_rate                               42377867                       # Simulator tick rate (ticks/s)
sim_freq                                 1000000000000                       # Frequency of simulated ticks
sim_insts                                   969245518                       # Number of instructions simulated
sim_ops                                    1730641246                       # Number of ops (including micro ops) simulated
sim_seconds                                  0.570986                       # Number of seconds simulated
sim_ticks                                570985685757                       # Number of ticks simulated
system.cpu0.Branches                                1                       # Number of branches fetched
system.cpu0.committedInsts                         13                       # Number of instructions committed
system.cpu0.committedOps                           27                       # Number of ops (including micro ops) committed
system.cpu0.idle_fraction                           0                       # Percentage of idle cycles
system.cpu0.l2bus.snoop_filter.hit_multi_requests           18                       # Number of requests hitting in the snoop filter with multiple (>1) holders of the requested data.
system.cpu0.l2bus.snoop_filter.hit_multi_snoops            0                       # Number of snoops hitting in the snoop filter with multiple (>1) holders of the requested data.
system.cpu0.l2bus.snoop_filter.hit_single_requests     12229438                       # Number of requests hitting in the snoop filter with a single holder of the requested data.
system.cpu0.l2bus.snoop_filter.hit_single_snoops         3572                       # Number of snoops hitting in the snoop filter with a single holder of the requested data.
system.cpu0.l2bus.snoop_filter.tot_requests     24455835                       # Total number of requests made to the snoop filter.
system.cpu0.l2bus.snoop_filter.tot_snoops         3572                       # Total number of snoops made to the snoop filter.
system.cpu0.mmucache.mmubus.snoop_filter.hit_multi_requests            0                       # Number of requests hitting in the snoop filter with multiple (>1) holders of the requested data.
system.cpu0.mmucache.mmubus.snoop_filter.hit_multi_snoops            0                       # Number of snoops hitting in the snoop filter with multiple (>1) holders of the requested data.
system.cpu0.mmucache.mmubus.snoop_filter.hit_single_requests            0                       # Number of requests hitting in the snoop filter with a single holder of the requested data.
system.cpu0.mmucache.mmubus.snoop_filter.hit_single_snoops            0                       # Number of snoops hitting in the snoop filter with a single holder of the requested data.
system.cpu0.mmucache.mmubus.snoop_filter.tot_requests            0                       # Total number of requests made to the snoop filter.
system.cpu0.mmucache.mmubus.snoop_filter.tot_snoops            0                       # Total number of snoops made to the snoop filter.
system.cpu0.not_idle_fraction                       1                       # Percentage of non-idle cycles
system.cpu0.numCycles                              33                       # number of cpu cycles simulated
system.cpu0.numWorkItemsCompleted                   0                       # number of work items this cpu completed
system.cpu0.numWorkItemsStarted                     0                       # number of work items this cpu started
system.cpu0.num_busy_cycles                        33                       # Number of busy cycles
system.cpu0.num_cc_register_reads                   5                       # number of times the CC registers were read
system.cpu0.num_conditional_control_insts            1                       # number of instructions that are conditional controls
system.cpu0.num_fp_alu_accesses                    24                       # Number of float alu accesses
system.cpu0.num_fp_insts                           24                       # number of float instructions
system.cpu0.num_fp_register_reads                  28                       # number of times the floating registers were read
system.cpu0.num_fp_register_writes                 24                       # number of times the floating registers were written
system.cpu0.num_func_calls                          0                       # number of times a function call or return occured
system.cpu0.num_idle_cycles                         0                       # Number of idle cycles
system.cpu0.num_int_alu_accesses                    7                       # Number of integer alu accesses
system.cpu0.num_int_insts                           7                       # number of integer instructions
system.cpu0.num_int_register_reads                 16                       # number of times the integer registers were read
system.cpu0.num_int_register_writes                 2                       # number of times the integer registers were written
system.cpu0.num_load_insts                          4                       # Number of load instructions
system.cpu0.num_mem_refs                            4                       # number of memory refs
system.cpu0.num_store_insts                         0                       # Number of store instructions
system.cpu0.num_vec_alu_accesses                    0                       # Number of vector alu accesses
system.cpu0.num_vec_insts                           0                       # number of vector instructions
system.cpu0.num_vec_register_reads                  0                       # number of times the vector registers were read
system.cpu0.num_vec_register_writes                 0                       # number of times the vector registers were written
system.cpu0.op_class::No_OpClass                    0      0.00%      0.00% # Class of executed instruction
system.cpu0.op_class::IntAlu                       11     40.74%     40.74% # Class of executed instruction
system.cpu0.op_class::IntMult                       0      0.00%     40.74% # Class of executed instruction
system.cpu0.op_class::IntDiv                        0      0.00%     40.74% # Class of executed instruction
system.cpu0.op_class::FloatAdd                      8     29.63%     70.37% # Class of executed instruction
system.cpu0.op_class::FloatCmp                      0      0.00%     70.37% # Class of executed instruction
system.cpu0.op_class::FloatCvt                      0      0.00%     70.37% # Class of executed instruction
system.cpu0.op_class::FloatMult                     0      0.00%     70.37% # Class of executed instruction
system.cpu0.op_class::FloatMultAcc                  0      0.00%     70.37% # Class of executed instruction
system.cpu0.op_class::FloatDiv                      0      0.00%     70.37% # Class of executed instruction
system.cpu0.op_class::FloatMisc                     0      0.00%     70.37% # Class of executed instruction
system.cpu0.op_class::FloatSqrt                     0      0.00%     70.37% # Class of executed instruction
system.cpu0.op_class::SimdAdd                       0      0.00%     70.37% # Class of executed instruction
system.cpu0.op_class::SimdAddAcc                    0      0.00%     70.37% # Class of executed instruction
system.cpu0.op_class::SimdAlu                       0      0.00%     70.37% # Class of executed instruction
system.cpu0.op_class::SimdCmp                       0      0.00%     70.37% # Class of executed instruction
system.cpu0.op_class::SimdCvt                       0      0.00%     70.37% # Class of executed instruction
system.cpu0.op_class::SimdMisc                      0      0.00%     70.37% # Class of executed instruction
system.cpu0.op_class::SimdMult                      0      0.00%     70.37% # Class of executed instruction
system.cpu0.op_class::SimdMultAcc                   0      0.00%     70.37% # Class of executed instruction
system.cpu0.op_class::SimdShift                     0      0.00%     70.37% # Class of executed instruction
system.cpu0.op_class::SimdShiftAcc                  0      0.00%     70.37% # Class of executed instruction
system.cpu0.op_class::SimdDiv                       0      0.00%     70.37% # Class of executed instruction
system.cpu0.op_class::SimdSqrt                      0      0.00%     70.37% # Class of executed instruction
system.cpu0.op_class::SimdFloatAdd                  0      0.00%     70.37% # Class of executed instruction
system.cpu0.op_class::SimdFloatAlu                  0      0.00%     70.37% # Class of executed instruction
system.cpu0.op_class::SimdFloatCmp                  4     14.81%     85.19% # Class of executed instruction
system.cpu0.op_class::SimdFloatCvt                  0      0.00%     85.19% # Class of executed instruction
system.cpu0.op_class::SimdFloatDiv                  0      0.00%     85.19% # Class of executed instruction
system.cpu0.op_class::SimdFloatMisc                 0      0.00%     85.19% # Class of executed instruction
system.cpu0.op_class::SimdFloatMult                 0      0.00%     85.19% # Class of executed instruction
system.cpu0.op_class::SimdFloatMultAcc              0      0.00%     85.19% # Class of executed instruction
system.cpu0.op_class::SimdFloatSqrt                 0      0.00%     85.19% # Class of executed instruction
system.cpu0.op_class::SimdReduceAdd                 0      0.00%     85.19% # Class of executed instruction
system.cpu0.op_class::SimdReduceAlu                 0      0.00%     85.19% # Class of executed instruction
system.cpu0.op_class::SimdReduceCmp                 0      0.00%     85.19% # Class of executed instruction
system.cpu0.op_class::SimdFloatReduceAdd            0      0.00%     85.19% # Class of executed instruction
system.cpu0.op_class::SimdFloatReduceCmp            0      0.00%     85.19% # Class of executed instruction
system.cpu0.op_class::SimdAes                       0      0.00%     85.19% # Class of executed instruction
system.cpu0.op_class::SimdAesMix                    0      0.00%     85.19% # Class of executed instruction
system.cpu0.op_class::SimdSha1Hash                  0      0.00%     85.19% # Class of executed instruction
system.cpu0.op_class::SimdSha1Hash2                 0      0.00%     85.19% # Class of executed instruction
system.cpu0.op_class::SimdSha256Hash                0      0.00%     85.19% # Class of executed instruction
system.cpu0.op_class::SimdSha256Hash2               0      0.00%     85.19% # Class of executed instruction
system.cpu0.op_class::SimdShaSigma2                 0      0.00%     85.19% # Class of executed instruction
system.cpu0.op_class::SimdShaSigma3                 0      0.00%     85.19% # Class of executed instruction
system.cpu0.op_class::SimdPredAlu                   0      0.00%     85.19% # Class of executed instruction
system.cpu0.op_class::MemRead                       0      0.00%     85.19% # Class of executed instruction
system.cpu0.op_class::MemWrite                      0      0.00%     85.19% # Class of executed instruction
system.cpu0.op_class::FloatMemRead                  4     14.81%    100.00% # Class of executed instruction
system.cpu0.op_class::FloatMemWrite                 0      0.00%    100.00% # Class of executed instruction
system.cpu0.op_class::IprAccess                     0      0.00%    100.00% # Class of executed instruction
system.cpu0.op_class::InstPrefetch                  0      0.00%    100.00% # Class of executed instruction
system.cpu0.op_class::total                        27                       # Class of executed instruction
system.cpu0.workload.numSyscalls                    0                       # Number of system calls
system.cpu1.Branches                                1                       # Number of branches fetched
system.cpu1.committedInsts                         16                       # Number of instructions committed
system.cpu1.committedOps                           23                       # Number of ops (including micro ops) committed
system.cpu1.idle_fraction                           0                       # Percentage of idle cycles
system.cpu1.l2bus.snoop_filter.hit_multi_requests           17                       # Number of requests hitting in the snoop filter with multiple (>1) holders of the requested data.
system.cpu1.l2bus.snoop_filter.hit_multi_snoops            1                       # Number of snoops hitting in the snoop filter with multiple (>1) holders of the requested data.
system.cpu1.l2bus.snoop_filter.hit_single_requests     12063323                       # Number of requests hitting in the snoop filter with a single holder of the requested data.
system.cpu1.l2bus.snoop_filter.hit_single_snoops      5248280                       # Number of snoops hitting in the snoop filter with a single holder of the requested data.
system.cpu1.l2bus.snoop_filter.tot_requests     24121585                       # Total number of requests made to the snoop filter.
system.cpu1.l2bus.snoop_filter.tot_snoops      5248281                       # Total number of snoops made to the snoop filter.
system.cpu1.mmucache.mmubus.snoop_filter.hit_multi_requests            0                       # Number of requests hitting in the snoop filter with multiple (>1) holders of the requested data.
system.cpu1.mmucache.mmubus.snoop_filter.hit_multi_snoops            0                       # Number of snoops hitting in the snoop filter with multiple (>1) holders of the requested data.
system.cpu1.mmucache.mmubus.snoop_filter.hit_single_requests            0                       # Number of requests hitting in the snoop filter with a single holder of the requested data.
system.cpu1.mmucache.mmubus.snoop_filter.hit_single_snoops            0                       # Number of snoops hitting in the snoop filter with a single holder of the requested data.
system.cpu1.mmucache.mmubus.snoop_filter.tot_requests            0                       # Total number of requests made to the snoop filter.
system.cpu1.mmucache.mmubus.snoop_filter.tot_snoops            0                       # Total number of snoops made to the snoop filter.
system.cpu1.not_idle_fraction                       1                       # Percentage of non-idle cycles
system.cpu1.numCycles                              31                       # number of cpu cycles simulated
system.cpu1.numWorkItemsCompleted                   0                       # number of work items this cpu completed
system.cpu1.numWorkItemsStarted                     0                       # number of work items this cpu started
system.cpu1.num_busy_cycles                        31                       # Number of busy cycles
system.cpu1.num_cc_register_reads                   7                       # number of times the CC registers were read
system.cpu1.num_cc_register_writes                  2                       # number of times the CC registers were written
system.cpu1.num_conditional_control_insts            1                       # number of instructions that are conditional controls
system.cpu1.num_fp_alu_accesses                    20                       # Number of float alu accesses
system.cpu1.num_fp_insts                           20                       # number of float instructions
system.cpu1.num_fp_register_reads                  43                       # number of times the floating registers were read
system.cpu1.num_fp_register_writes                 19                       # number of times the floating registers were written
system.cpu1.num_func_calls                          0                       # number of times a function call or return occured
system.cpu1.num_idle_cycles                         0                       # Number of idle cycles
system.cpu1.num_int_alu_accesses                    5                       # Number of integer alu accesses
system.cpu1.num_int_insts                           5                       # number of integer instructions
system.cpu1.num_int_register_reads                 10                       # number of times the integer registers were read
system.cpu1.num_int_register_writes                 2                       # number of times the integer registers were written
system.cpu1.num_load_insts                          2                       # Number of load instructions
system.cpu1.num_mem_refs                            2                       # number of memory refs
system.cpu1.num_store_insts                         0                       # Number of store instructions
system.cpu1.num_vec_alu_accesses                    0                       # Number of vector alu accesses
system.cpu1.num_vec_insts                           0                       # number of vector instructions
system.cpu1.num_vec_register_reads                  0                       # number of times the vector registers were read
system.cpu1.num_vec_register_writes                 0                       # number of times the vector registers were written
system.cpu1.op_class::No_OpClass                    0      0.00%      0.00% # Class of executed instruction
system.cpu1.op_class::IntAlu                        7     30.43%     30.43% # Class of executed instruction
system.cpu1.op_class::IntMult                       0      0.00%     30.43% # Class of executed instruction
system.cpu1.op_class::IntDiv                        0      0.00%     30.43% # Class of executed instruction
system.cpu1.op_class::FloatAdd                      2      8.70%     39.13% # Class of executed instruction
system.cpu1.op_class::FloatCmp                      0      0.00%     39.13% # Class of executed instruction
system.cpu1.op_class::FloatCvt                      0      0.00%     39.13% # Class of executed instruction
system.cpu1.op_class::FloatMult                     0      0.00%     39.13% # Class of executed instruction
system.cpu1.op_class::FloatMultAcc                  0      0.00%     39.13% # Class of executed instruction
system.cpu1.op_class::FloatDiv                      0      0.00%     39.13% # Class of executed instruction
system.cpu1.op_class::FloatMisc                     0      0.00%     39.13% # Class of executed instruction
system.cpu1.op_class::FloatSqrt                     0      0.00%     39.13% # Class of executed instruction
system.cpu1.op_class::SimdAdd                       0      0.00%     39.13% # Class of executed instruction
system.cpu1.op_class::SimdAddAcc                    0      0.00%     39.13% # Class of executed instruction
system.cpu1.op_class::SimdAlu                       0      0.00%     39.13% # Class of executed instruction
system.cpu1.op_class::SimdCmp                       0      0.00%     39.13% # Class of executed instruction
system.cpu1.op_class::SimdCvt                       0      0.00%     39.13% # Class of executed instruction
system.cpu1.op_class::SimdMisc                      0      0.00%     39.13% # Class of executed instruction
system.cpu1.op_class::SimdMult                      0      0.00%     39.13% # Class of executed instruction
system.cpu1.op_class::SimdMultAcc                   0      0.00%     39.13% # Class of executed instruction
system.cpu1.op_class::SimdShift                     0      0.00%     39.13% # Class of executed instruction
system.cpu1.op_class::SimdShiftAcc                  0      0.00%     39.13% # Class of executed instruction
system.cpu1.op_class::SimdDiv                       0      0.00%     39.13% # Class of executed instruction
system.cpu1.op_class::SimdSqrt                      0      0.00%     39.13% # Class of executed instruction
system.cpu1.op_class::SimdFloatAdd                  5     21.74%     60.87% # Class of executed instruction
system.cpu1.op_class::SimdFloatAlu                  0      0.00%     60.87% # Class of executed instruction
system.cpu1.op_class::SimdFloatCmp                  1      4.35%     65.22% # Class of executed instruction
system.cpu1.op_class::SimdFloatCvt                  1      4.35%     69.57% # Class of executed instruction
system.cpu1.op_class::SimdFloatDiv                  0      0.00%     69.57% # Class of executed instruction
system.cpu1.op_class::SimdFloatMisc                 0      0.00%     69.57% # Class of executed instruction
system.cpu1.op_class::SimdFloatMult                 5     21.74%     91.30% # Class of executed instruction
system.cpu1.op_class::SimdFloatMultAcc              0      0.00%     91.30% # Class of executed instruction
system.cpu1.op_class::SimdFloatSqrt                 0      0.00%     91.30% # Class of executed instruction
system.cpu1.op_class::SimdReduceAdd                 0      0.00%     91.30% # Class of executed instruction
system.cpu1.op_class::SimdReduceAlu                 0      0.00%     91.30% # Class of executed instruction
system.cpu1.op_class::SimdReduceCmp                 0      0.00%     91.30% # Class of executed instruction
system.cpu1.op_class::SimdFloatReduceAdd            0      0.00%     91.30% # Class of executed instruction
system.cpu1.op_class::SimdFloatReduceCmp            0      0.00%     91.30% # Class of executed instruction
system.cpu1.op_class::SimdAes                       0      0.00%     91.30% # Class of executed instruction
system.cpu1.op_class::SimdAesMix                    0      0.00%     91.30% # Class of executed instruction
system.cpu1.op_class::SimdSha1Hash                  0      0.00%     91.30% # Class of executed instruction
system.cpu1.op_class::SimdSha1Hash2                 0      0.00%     91.30% # Class of executed instruction
system.cpu1.op_class::SimdSha256Hash                0      0.00%     91.30% # Class of executed instruction
system.cpu1.op_class::SimdSha256Hash2               0      0.00%     91.30% # Class of executed instruction
system.cpu1.op_class::SimdShaSigma2                 0      0.00%     91.30% # Class of executed instruction
system.cpu1.op_class::SimdShaSigma3                 0      0.00%     91.30% # Class of executed instruction
system.cpu1.op_class::SimdPredAlu                   0      0.00%     91.30% # Class of executed instruction
system.cpu1.op_class::MemRead                       0      0.00%     91.30% # Class of executed instruction
system.cpu1.op_class::MemWrite                      0      0.00%     91.30% # Class of executed instruction
system.cpu1.op_class::FloatMemRead                  2      8.70%    100.00% # Class of executed instruction
system.cpu1.op_class::FloatMemWrite                 0      0.00%    100.00% # Class of executed instruction
system.cpu1.op_class::IprAccess                     0      0.00%    100.00% # Class of executed instruction
system.cpu1.op_class::InstPrefetch                  0      0.00%    100.00% # Class of executed instruction
system.cpu1.op_class::total                        23                       # Class of executed instruction
system.cpu1.workload.numSyscalls                    0                       # Number of system calls
system.cpu2.Branches                                1                       # Number of branches fetched
system.cpu2.committedInsts                         13                       # Number of instructions committed
system.cpu2.committedOps                           27                       # Number of ops (including micro ops) committed
system.cpu2.idle_fraction                           0                       # Percentage of idle cycles
system.cpu2.l2bus.snoop_filter.hit_multi_requests           21                       # Number of requests hitting in the snoop filter with multiple (>1) holders of the requested data.
system.cpu2.l2bus.snoop_filter.hit_multi_snoops            0                       # Number of snoops hitting in the snoop filter with multiple (>1) holders of the requested data.
system.cpu2.l2bus.snoop_filter.hit_single_requests     12234906                       # Number of requests hitting in the snoop filter with a single holder of the requested data.
system.cpu2.l2bus.snoop_filter.hit_single_snoops         3493                       # Number of snoops hitting in the snoop filter with a single holder of the requested data.
system.cpu2.l2bus.snoop_filter.tot_requests     24467061                       # Total number of requests made to the snoop filter.
system.cpu2.l2bus.snoop_filter.tot_snoops         3493                       # Total number of snoops made to the snoop filter.
system.cpu2.mmucache.mmubus.snoop_filter.hit_multi_requests            0                       # Number of requests hitting in the snoop filter with multiple (>1) holders of the requested data.
system.cpu2.mmucache.mmubus.snoop_filter.hit_multi_snoops            0                       # Number of snoops hitting in the snoop filter with multiple (>1) holders of the requested data.
system.cpu2.mmucache.mmubus.snoop_filter.hit_single_requests            0                       # Number of requests hitting in the snoop filter with a single holder of the requested data.
system.cpu2.mmucache.mmubus.snoop_filter.hit_single_snoops            0                       # Number of snoops hitting in the snoop filter with a single holder of the requested data.
system.cpu2.mmucache.mmubus.snoop_filter.tot_requests            0                       # Total number of requests made to the snoop filter.
system.cpu2.mmucache.mmubus.snoop_filter.tot_snoops            0                       # Total number of snoops made to the snoop filter.
system.cpu2.not_idle_fraction                       1                       # Percentage of non-idle cycles
system.cpu2.numCycles                              33                       # number of cpu cycles simulated
system.cpu2.numWorkItemsCompleted                   0                       # number of work items this cpu completed
system.cpu2.numWorkItemsStarted                     0                       # number of work items this cpu started
system.cpu2.num_busy_cycles                        33                       # Number of busy cycles
system.cpu2.num_cc_register_reads                   5                       # number of times the CC registers were read
system.cpu2.num_conditional_control_insts            1                       # number of instructions that are conditional controls
system.cpu2.num_fp_alu_accesses                    24                       # Number of float alu accesses
system.cpu2.num_fp_insts                           24                       # number of float instructions
system.cpu2.num_fp_register_reads                  28                       # number of times the floating registers were read
system.cpu2.num_fp_register_writes                 24                       # number of times the floating registers were written
system.cpu2.num_func_calls                          0                       # number of times a function call or return occured
system.cpu2.num_idle_cycles                         0                       # Number of idle cycles
system.cpu2.num_int_alu_accesses                    7                       # Number of integer alu accesses
system.cpu2.num_int_insts                           7                       # number of integer instructions
system.cpu2.num_int_register_reads                 16                       # number of times the integer registers were read
system.cpu2.num_int_register_writes                 2                       # number of times the integer registers were written
system.cpu2.num_load_insts                          4                       # Number of load instructions
system.cpu2.num_mem_refs                            4                       # number of memory refs
system.cpu2.num_store_insts                         0                       # Number of store instructions
system.cpu2.num_vec_alu_accesses                    0                       # Number of vector alu accesses
system.cpu2.num_vec_insts                           0                       # number of vector instructions
system.cpu2.num_vec_register_reads                  0                       # number of times the vector registers were read
system.cpu2.num_vec_register_writes                 0                       # number of times the vector registers were written
system.cpu2.op_class::No_OpClass                    0      0.00%      0.00% # Class of executed instruction
system.cpu2.op_class::IntAlu                       11     40.74%     40.74% # Class of executed instruction
system.cpu2.op_class::IntMult                       0      0.00%     40.74% # Class of executed instruction
system.cpu2.op_class::IntDiv                        0      0.00%     40.74% # Class of executed instruction
system.cpu2.op_class::FloatAdd                      8     29.63%     70.37% # Class of executed instruction
system.cpu2.op_class::FloatCmp                      0      0.00%     70.37% # Class of executed instruction
system.cpu2.op_class::FloatCvt                      0      0.00%     70.37% # Class of executed instruction
system.cpu2.op_class::FloatMult                     0      0.00%     70.37% # Class of executed instruction
system.cpu2.op_class::FloatMultAcc                  0      0.00%     70.37% # Class of executed instruction
system.cpu2.op_class::FloatDiv                      0      0.00%     70.37% # Class of executed instruction
system.cpu2.op_class::FloatMisc                     0      0.00%     70.37% # Class of executed instruction
system.cpu2.op_class::FloatSqrt                     0      0.00%     70.37% # Class of executed instruction
system.cpu2.op_class::SimdAdd                       0      0.00%     70.37% # Class of executed instruction
system.cpu2.op_class::SimdAddAcc                    0      0.00%     70.37% # Class of executed instruction
system.cpu2.op_class::SimdAlu                       0      0.00%     70.37% # Class of executed instruction
system.cpu2.op_class::SimdCmp                       0      0.00%     70.37% # Class of executed instruction
system.cpu2.op_class::SimdCvt                       0      0.00%     70.37% # Class of executed instruction
system.cpu2.op_class::SimdMisc                      0      0.00%     70.37% # Class of executed instruction
system.cpu2.op_class::SimdMult                      0      0.00%     70.37% # Class of executed instruction
system.cpu2.op_class::SimdMultAcc                   0      0.00%     70.37% # Class of executed instruction
system.cpu2.op_class::SimdShift                     0      0.00%     70.37% # Class of executed instruction
system.cpu2.op_class::SimdShiftAcc                  0      0.00%     70.37% # Class of executed instruction
system.cpu2.op_class::SimdDiv                       0      0.00%     70.37% # Class of executed instruction
system.cpu2.op_class::SimdSqrt                      0      0.00%     70.37% # Class of executed instruction
system.cpu2.op_class::SimdFloatAdd                  0      0.00%     70.37% # Class of executed instruction
system.cpu2.op_class::SimdFloatAlu                  0      0.00%     70.37% # Class of executed instruction
system.cpu2.op_class::SimdFloatCmp                  4     14.81%     85.19% # Class of executed instruction
system.cpu2.op_class::SimdFloatCvt                  0      0.00%     85.19% # Class of executed instruction
system.cpu2.op_class::SimdFloatDiv                  0      0.00%     85.19% # Class of executed instruction
system.cpu2.op_class::SimdFloatMisc                 0      0.00%     85.19% # Class of executed instruction
system.cpu2.op_class::SimdFloatMult                 0      0.00%     85.19% # Class of executed instruction
system.cpu2.op_class::SimdFloatMultAcc              0      0.00%     85.19% # Class of executed instruction
system.cpu2.op_class::SimdFloatSqrt                 0      0.00%     85.19% # Class of executed instruction
system.cpu2.op_class::SimdReduceAdd                 0      0.00%     85.19% # Class of executed instruction
system.cpu2.op_class::SimdReduceAlu                 0      0.00%     85.19% # Class of executed instruction
system.cpu2.op_class::SimdReduceCmp                 0      0.00%     85.19% # Class of executed instruction
system.cpu2.op_class::SimdFloatReduceAdd            0      0.00%     85.19% # Class of executed instruction
system.cpu2.op_class::SimdFloatReduceCmp            0      0.00%     85.19% # Class of executed instruction
system.cpu2.op_class::SimdAes                       0      0.00%     85.19% # Class of executed instruction
system.cpu2.op_class::SimdAesMix                    0      0.00%     85.19% # Class of executed instruction
system.cpu2.op_class::SimdSha1Hash                  0      0.00%     85.19% # Class of executed instruction
system.cpu2.op_class::SimdSha1Hash2                 0      0.00%     85.19% # Class of executed instruction
system.cpu2.op_class::SimdSha256Hash                0      0.00%     85.19% # Class of executed instruction
system.cpu2.op_class::SimdSha256Hash2               0      0.00%     85.19% # Class of executed instruction
system.cpu2.op_class::SimdShaSigma2                 0      0.00%     85.19% # Class of executed instruction
system.cpu2.op_class::SimdShaSigma3                 0      0.00%     85.19% # Class of executed instruction
system.cpu2.op_class::SimdPredAlu                   0      0.00%     85.19% # Class of executed instruction
system.cpu2.op_class::MemRead                       0      0.00%     85.19% # Class of executed instruction
system.cpu2.op_class::MemWrite                      0      0.00%     85.19% # Class of executed instruction
system.cpu2.op_class::FloatMemRead                  4     14.81%    100.00% # Class of executed instruction
system.cpu2.op_class::FloatMemWrite                 0      0.00%    100.00% # Class of executed instruction
system.cpu2.op_class::IprAccess                     0      0.00%    100.00% # Class of executed instruction
system.cpu2.op_class::InstPrefetch                  0      0.00%    100.00% # Class of executed instruction
system.cpu2.op_class::total                        27                       # Class of executed instruction
system.cpu2.workload.numSyscalls                    0                       # Number of system calls
system.cpu3.committedInsts                         15                       # Number of instructions committed
system.cpu3.committedOps                           24                       # Number of ops (including micro ops) committed
system.cpu3.idle_fraction                           0                       # Percentage of idle cycles
system.cpu3.l2bus.snoop_filter.hit_multi_requests           11                       # Number of requests hitting in the snoop filter with multiple (>1) holders of the requested data.
system.cpu3.l2bus.snoop_filter.hit_multi_snoops            1                       # Number of snoops hitting in the snoop filter with multiple (>1) holders of the requested data.
system.cpu3.l2bus.snoop_filter.hit_single_requests     12042087                       # Number of requests hitting in the snoop filter with a single holder of the requested data.
system.cpu3.l2bus.snoop_filter.hit_single_snoops      5247511                       # Number of snoops hitting in the snoop filter with a single holder of the requested data.
system.cpu3.l2bus.snoop_filter.tot_requests     24080093                       # Total number of requests made to the snoop filter.
system.cpu3.l2bus.snoop_filter.tot_snoops      5247512                       # Total number of snoops made to the snoop filter.
system.cpu3.mmucache.mmubus.snoop_filter.hit_multi_requests            0                       # Number of requests hitting in the snoop filter with multiple (>1) holders of the requested data.
system.cpu3.mmucache.mmubus.snoop_filter.hit_multi_snoops            0                       # Number of snoops hitting in the snoop filter with multiple (>1) holders of the requested data.
system.cpu3.mmucache.mmubus.snoop_filter.hit_single_requests            0                       # Number of requests hitting in the snoop filter with a single holder of the requested data.
system.cpu3.mmucache.mmubus.snoop_filter.hit_single_snoops            0                       # Number of snoops hitting in the snoop filter with a single holder of the requested data.
system.cpu3.mmucache.mmubus.snoop_filter.tot_requests            0                       # Total number of requests made to the snoop filter.
system.cpu3.mmucache.mmubus.snoop_filter.tot_snoops            0                       # Total number of snoops made to the snoop filter.
system.cpu3.not_idle_fraction                       1                       # Percentage of non-idle cycles
system.cpu3.numCycles                              31                       # number of cpu cycles simulated
system.cpu3.numWorkItemsCompleted                   0                       # number of work items this cpu completed
system.cpu3.numWorkItemsStarted                     0                       # number of work items this cpu started
system.cpu3.num_busy_cycles                        31                       # Number of busy cycles
system.cpu3.num_cc_register_reads                   2                       # number of times the CC registers were read
system.cpu3.num_cc_register_writes                  2                       # number of times the CC registers were written
system.cpu3.num_conditional_control_insts            0                       # number of instructions that are conditional controls
system.cpu3.num_fp_alu_accesses                    24                       # Number of float alu accesses
system.cpu3.num_fp_insts                           24                       # number of float instructions
system.cpu3.num_fp_register_reads                  40                       # number of times the floating registers were read
system.cpu3.num_fp_register_writes                 23                       # number of times the floating registers were written
system.cpu3.num_func_calls                          0                       # number of times a function call or return occured
system.cpu3.num_idle_cycles                         0                       # Number of idle cycles
system.cpu3.num_int_alu_accesses                    5                       # Number of integer alu accesses
system.cpu3.num_int_insts                           5                       # number of integer instructions
system.cpu3.num_int_register_reads                 15                       # number of times the integer registers were read
system.cpu3.num_int_register_writes                 0                       # number of times the integer registers were written
system.cpu3.num_load_insts                          5                       # Number of load instructions
system.cpu3.num_mem_refs                            5                       # number of memory refs
system.cpu3.num_store_insts                         0                       # Number of store instructions
system.cpu3.num_vec_alu_accesses                    0                       # Number of vector alu accesses
system.cpu3.num_vec_insts                           0                       # number of vector instructions
system.cpu3.num_vec_register_reads                  0                       # number of times the vector registers were read
system.cpu3.num_vec_register_writes                 0                       # number of times the vector registers were written
system.cpu3.op_class::No_OpClass                    0      0.00%      0.00% # Class of executed instruction
system.cpu3.op_class::IntAlu                        4     16.67%     16.67% # Class of executed instruction
system.cpu3.op_class::IntMult                       0      0.00%     16.67% # Class of executed instruction
system.cpu3.op_class::IntDiv                        0      0.00%     16.67% # Class of executed instruction
system.cpu3.op_class::FloatAdd                      4     16.67%     33.33% # Class of executed instruction
system.cpu3.op_class::FloatCmp                      0      0.00%     33.33% # Class of executed instruction
system.cpu3.op_class::FloatCvt                      0      0.00%     33.33% # Class of executed instruction
system.cpu3.op_class::FloatMult                     0      0.00%     33.33% # Class of executed instruction
system.cpu3.op_class::FloatMultAcc                  0      0.00%     33.33% # Class of executed instruction
system.cpu3.op_class::FloatDiv                      0      0.00%     33.33% # Class of executed instruction
system.cpu3.op_class::FloatMisc                     0      0.00%     33.33% # Class of executed instruction
system.cpu3.op_class::FloatSqrt                     0      0.00%     33.33% # Class of executed instruction
system.cpu3.op_class::SimdAdd                       0      0.00%     33.33% # Class of executed instruction
system.cpu3.op_class::SimdAddAcc                    0      0.00%     33.33% # Class of executed instruction
system.cpu3.op_class::SimdAlu                       0      0.00%     33.33% # Class of executed instruction
system.cpu3.op_class::SimdCmp                       0      0.00%     33.33% # Class of executed instruction
system.cpu3.op_class::SimdCvt                       0      0.00%     33.33% # Class of executed instruction
system.cpu3.op_class::SimdMisc                      0      0.00%     33.33% # Class of executed instruction
system.cpu3.op_class::SimdMult                      0      0.00%     33.33% # Class of executed instruction
system.cpu3.op_class::SimdMultAcc                   0      0.00%     33.33% # Class of executed instruction
system.cpu3.op_class::SimdShift                     0      0.00%     33.33% # Class of executed instruction
system.cpu3.op_class::SimdShiftAcc                  0      0.00%     33.33% # Class of executed instruction
system.cpu3.op_class::SimdDiv                       0      0.00%     33.33% # Class of executed instruction
system.cpu3.op_class::SimdSqrt                      0      0.00%     33.33% # Class of executed instruction
system.cpu3.op_class::SimdFloatAdd                  6     25.00%     58.33% # Class of executed instruction
system.cpu3.op_class::SimdFloatAlu                  0      0.00%     58.33% # Class of executed instruction
system.cpu3.op_class::SimdFloatCmp                  1      4.17%     62.50% # Class of executed instruction
system.cpu3.op_class::SimdFloatCvt                  1      4.17%     66.67% # Class of executed instruction
system.cpu3.op_class::SimdFloatDiv                  0      0.00%     66.67% # Class of executed instruction
system.cpu3.op_class::SimdFloatMisc                 0      0.00%     66.67% # Class of executed instruction
system.cpu3.op_class::SimdFloatMult                 3     12.50%     79.17% # Class of executed instruction
system.cpu3.op_class::SimdFloatMultAcc              0      0.00%     79.17% # Class of executed instruction
system.cpu3.op_class::SimdFloatSqrt                 0      0.00%     79.17% # Class of executed instruction
system.cpu3.op_class::SimdReduceAdd                 0      0.00%     79.17% # Class of executed instruction
system.cpu3.op_class::SimdReduceAlu                 0      0.00%     79.17% # Class of executed instruction
system.cpu3.op_class::SimdReduceCmp                 0      0.00%     79.17% # Class of executed instruction
system.cpu3.op_class::SimdFloatReduceAdd            0      0.00%     79.17% # Class of executed instruction
system.cpu3.op_class::SimdFloatReduceCmp            0      0.00%     79.17% # Class of executed instruction
system.cpu3.op_class::SimdAes                       0      0.00%     79.17% # Class of executed instruction
system.cpu3.op_class::SimdAesMix                    0      0.00%     79.17% # Class of executed instruction
system.cpu3.op_class::SimdSha1Hash                  0      0.00%     79.17% # Class of executed instruction
system.cpu3.op_class::SimdSha1Hash2                 0      0.00%     79.17% # Class of executed instruction
system.cpu3.op_class::SimdSha256Hash                0      0.00%     79.17% # Class of executed instruction
system.cpu3.op_class::SimdSha256Hash2               0      0.00%     79.17% # Class of executed instruction
system.cpu3.op_class::SimdShaSigma2                 0      0.00%     79.17% # Class of executed instruction
system.cpu3.op_class::SimdShaSigma3                 0      0.00%     79.17% # Class of executed instruction
system.cpu3.op_class::SimdPredAlu                   0      0.00%     79.17% # Class of executed instruction
system.cpu3.op_class::MemRead                       0      0.00%     79.17% # Class of executed instruction
system.cpu3.op_class::MemWrite                      0      0.00%     79.17% # Class of executed instruction
system.cpu3.op_class::FloatMemRead                  5     20.83%    100.00% # Class of executed instruction
system.cpu3.op_class::FloatMemWrite                 0      0.00%    100.00% # Class of executed instruction
system.cpu3.op_class::IprAccess                     0      0.00%    100.00% # Class of executed instruction
system.cpu3.op_class::InstPrefetch                  0      0.00%    100.00% # Class of executed instruction
system.cpu3.op_class::total                        24                       # Class of executed instruction
system.cpu3.workload.numSyscalls                    0                       # Number of system calls
system.l3bus.snoop_filter.hit_multi_requests            0                       # Number of requests hitting in the snoop filter with multiple (>1) holders of the requested data.
system.l3bus.snoop_filter.hit_multi_snoops            0                       # Number of snoops hitting in the snoop filter with multiple (>1) holders of the requested data.
system.l3bus.snoop_filter.hit_single_requests     42983381                       # Number of requests hitting in the snoop filter with a single holder of the requested data.
system.l3bus.snoop_filter.hit_single_snoops            0                       # Number of snoops hitting in the snoop filter with a single holder of the requested data.
system.l3bus.snoop_filter.tot_requests       85958742                       # Total number of requests made to the snoop filter.
system.l3bus.snoop_filter.tot_snoops                0                       # Total number of snoops made to the snoop filter.
system.membus.snoop_filter.hit_multi_requests            0                       # Number of requests hitting in the snoop filter with multiple (>1) holders of the requested data.
system.membus.snoop_filter.hit_multi_snoops            0                       # Number of snoops hitting in the snoop filter with multiple (>1) holders of the requested data.
system.membus.snoop_filter.hit_single_requests     34392983                       # Number of requests hitting in the snoop filter with a single holder of the requested data.
system.membus.snoop_filter.hit_single_snoops            0                       # Number of snoops hitting in the snoop filter with a single holder of the requested data.
system.membus.snoop_filter.tot_requests      68859895                       # Total number of requests made to the snoop filter.
system.membus.snoop_filter.tot_snoops               0                       # Total number of snoops made to the snoop filter.
system.switch_cpus0.cc_regfile_reads        200430010                       # number of cc regfile reads
system.switch_cpus0.cc_regfile_writes       124095604                       # number of cc regfile writes
system.switch_cpus0.committedInsts          249942714                       # Number of Instructions Simulated
system.switch_cpus0.committedOps            446886375                       # Number of Ops (including micro ops) Simulated
system.switch_cpus0.cpi                      6.860259                       # CPI: Cycles Per Instruction
system.switch_cpus0.cpi_total                6.860259                       # CPI: Total CPI of All Threads
system.switch_cpus0.fp_regfile_reads        381785241                       # number of floating regfile reads
system.switch_cpus0.fp_regfile_writes       287549554                       # number of floating regfile writes
system.switch_cpus0.idleCycles                  42569                       # Total number of cycles that the CPU has spent unscheduled due to idling
system.switch_cpus0.iew.branchMispredicts       653094                       # Number of branch mispredicts detected at execute
system.switch_cpus0.iew.exec_branches        29617181                       # Number of branches executed
system.switch_cpus0.iew.exec_nop                    0                       # number of nop insts executed
system.switch_cpus0.iew.exec_rate            0.351838                       # Inst execution rate
system.switch_cpus0.iew.exec_refs           187467600                       # number of memory reference insts executed
system.switch_cpus0.iew.exec_stores          65097846                       # Number of stores executed
system.switch_cpus0.iew.exec_swp                    0                       # number of swp insts executed
system.switch_cpus0.iew.iewBlockCycles      315455367                       # Number of cycles IEW is blocking
system.switch_cpus0.iew.iewDispLoadInsts    116220686                       # Number of dispatched load instructions
system.switch_cpus0.iew.iewDispNonSpecInsts          120                       # Number of dispatched non-speculative instructions
system.switch_cpus0.iew.iewDispSquashedInsts        10307                       # Number of squashed instructions skipped by dispatch
system.switch_cpus0.iew.iewDispStoreInsts     66669292                       # Number of dispatched store instructions
system.switch_cpus0.iew.iewDispatchedInsts    606963429                       # Number of instructions dispatched to IQ
system.switch_cpus0.iew.iewExecLoadInsts    122369754                       # Number of load instructions executed
system.switch_cpus0.iew.iewExecSquashedInsts      1370067                       # Number of squashed instructions skipped in execute
system.switch_cpus0.iew.iewExecutedInsts    603286426                       # Number of executed instructions
system.switch_cpus0.iew.iewIQFullEvents       1644091                       # Number of times the IQ has become full, causing a stall
system.switch_cpus0.iew.iewIdleCycles               0                       # Number of cycles IEW is idle
system.switch_cpus0.iew.iewLSQFullEvents    345314806                       # Number of times the LSQ has become full, causing a stall
system.switch_cpus0.iew.iewSquashCycles       1694167                       # Number of cycles IEW is squashing
system.switch_cpus0.iew.iewUnblockCycles    347865835                       # Number of cycles IEW is unblocking
system.switch_cpus0.iew.memOrderViolationEvents         7629                       # Number of memory order violations
system.switch_cpus0.iew.predictedNotTakenIncorrect       324428                       # Number of branches that were predicted not taken incorrectly
system.switch_cpus0.iew.predictedTakenIncorrect       328666                       # Number of branches that were predicted taken incorrectly
system.switch_cpus0.iew.wb_consumers        557161058                       # num instructions consuming a value
system.switch_cpus0.iew.wb_count            580234117                       # cumulative count of insts written-back
system.switch_cpus0.iew.wb_fanout            0.618611                       # average fanout of values written-back
system.switch_cpus0.iew.wb_producers        344665943                       # num instructions producing a value
system.switch_cpus0.iew.wb_rate              0.338394                       # insts written-back per cycle
system.switch_cpus0.iew.wb_sent             593377477                       # cumulative count of insts sent to commit
system.switch_cpus0.int_regfile_reads       596133411                       # number of integer regfile reads
system.switch_cpus0.int_regfile_writes      192482671                       # number of integer regfile writes
system.switch_cpus0.ipc                      0.145767                       # IPC: Instructions Per Cycle
system.switch_cpus0.ipc_total                0.145767                       # IPC: Total IPC of All Threads
system.switch_cpus0.iq.FU_type_0::No_OpClass     13174396      2.18%      2.18% # Type of FU issued
system.switch_cpus0.iq.FU_type_0::IntAlu    250887315     41.49%     43.67% # Type of FU issued
system.switch_cpus0.iq.FU_type_0::IntMult            0      0.00%     43.67% # Type of FU issued
system.switch_cpus0.iq.FU_type_0::IntDiv            0      0.00%     43.67% # Type of FU issued
system.switch_cpus0.iq.FU_type_0::FloatAdd     73632110     12.18%     55.85% # Type of FU issued
system.switch_cpus0.iq.FU_type_0::FloatCmp            0      0.00%     55.85% # Type of FU issued
system.switch_cpus0.iq.FU_type_0::FloatCvt            0      0.00%     55.85% # Type of FU issued
system.switch_cpus0.iq.FU_type_0::FloatMult            0      0.00%     55.85% # Type of FU issued
system.switch_cpus0.iq.FU_type_0::FloatMultAcc            0      0.00%     55.85% # Type of FU issued
system.switch_cpus0.iq.FU_type_0::FloatDiv            0      0.00%     55.85% # Type of FU issued
system.switch_cpus0.iq.FU_type_0::FloatMisc            0      0.00%     55.85% # Type of FU issued
system.switch_cpus0.iq.FU_type_0::FloatSqrt            0      0.00%     55.85% # Type of FU issued
system.switch_cpus0.iq.FU_type_0::SimdAdd            0      0.00%     55.85% # Type of FU issued
system.switch_cpus0.iq.FU_type_0::SimdAddAcc            0      0.00%     55.85% # Type of FU issued
system.switch_cpus0.iq.FU_type_0::SimdAlu        58242      0.01%     55.86% # Type of FU issued
system.switch_cpus0.iq.FU_type_0::SimdCmp            0      0.00%     55.86% # Type of FU issued
system.switch_cpus0.iq.FU_type_0::SimdCvt            0      0.00%     55.86% # Type of FU issued
system.switch_cpus0.iq.FU_type_0::SimdMisc            0      0.00%     55.86% # Type of FU issued
system.switch_cpus0.iq.FU_type_0::SimdMult            0      0.00%     55.86% # Type of FU issued
system.switch_cpus0.iq.FU_type_0::SimdMultAcc            0      0.00%     55.86% # Type of FU issued
system.switch_cpus0.iq.FU_type_0::SimdShift            0      0.00%     55.86% # Type of FU issued
system.switch_cpus0.iq.FU_type_0::SimdShiftAcc            0      0.00%     55.86% # Type of FU issued
system.switch_cpus0.iq.FU_type_0::SimdDiv            0      0.00%     55.86% # Type of FU issued
system.switch_cpus0.iq.FU_type_0::SimdSqrt            0      0.00%     55.86% # Type of FU issued
system.switch_cpus0.iq.FU_type_0::SimdFloatAdd     28715364      4.75%     60.61% # Type of FU issued
system.switch_cpus0.iq.FU_type_0::SimdFloatAlu            0      0.00%     60.61% # Type of FU issued
system.switch_cpus0.iq.FU_type_0::SimdFloatCmp     29652421      4.90%     65.51% # Type of FU issued
system.switch_cpus0.iq.FU_type_0::SimdFloatCvt      5714267      0.95%     66.46% # Type of FU issued
system.switch_cpus0.iq.FU_type_0::SimdFloatDiv            0      0.00%     66.46% # Type of FU issued
system.switch_cpus0.iq.FU_type_0::SimdFloatMisc            0      0.00%     66.46% # Type of FU issued
system.switch_cpus0.iq.FU_type_0::SimdFloatMult     15003477      2.48%     68.94% # Type of FU issued
system.switch_cpus0.iq.FU_type_0::SimdFloatMultAcc            0      0.00%     68.94% # Type of FU issued
system.switch_cpus0.iq.FU_type_0::SimdFloatSqrt            0      0.00%     68.94% # Type of FU issued
system.switch_cpus0.iq.FU_type_0::SimdReduceAdd            0      0.00%     68.94% # Type of FU issued
system.switch_cpus0.iq.FU_type_0::SimdReduceAlu            0      0.00%     68.94% # Type of FU issued
system.switch_cpus0.iq.FU_type_0::SimdReduceCmp            0      0.00%     68.94% # Type of FU issued
system.switch_cpus0.iq.FU_type_0::SimdFloatReduceAdd            0      0.00%     68.94% # Type of FU issued
system.switch_cpus0.iq.FU_type_0::SimdFloatReduceCmp            0      0.00%     68.94% # Type of FU issued
system.switch_cpus0.iq.FU_type_0::SimdAes            0      0.00%     68.94% # Type of FU issued
system.switch_cpus0.iq.FU_type_0::SimdAesMix            0      0.00%     68.94% # Type of FU issued
system.switch_cpus0.iq.FU_type_0::SimdSha1Hash            0      0.00%     68.94% # Type of FU issued
system.switch_cpus0.iq.FU_type_0::SimdSha1Hash2            0      0.00%     68.94% # Type of FU issued
system.switch_cpus0.iq.FU_type_0::SimdSha256Hash            0      0.00%     68.94% # Type of FU issued
system.switch_cpus0.iq.FU_type_0::SimdSha256Hash2            0      0.00%     68.94% # Type of FU issued
system.switch_cpus0.iq.FU_type_0::SimdShaSigma2            0      0.00%     68.94% # Type of FU issued
system.switch_cpus0.iq.FU_type_0::SimdShaSigma3            0      0.00%     68.94% # Type of FU issued
system.switch_cpus0.iq.FU_type_0::SimdPredAlu            0      0.00%     68.94% # Type of FU issued
system.switch_cpus0.iq.FU_type_0::MemRead     27298780      4.51%     73.45% # Type of FU issued
system.switch_cpus0.iq.FU_type_0::MemWrite     21740061      3.60%     77.05% # Type of FU issued
system.switch_cpus0.iq.FU_type_0::FloatMemRead     95318406     15.76%     92.81% # Type of FU issued
system.switch_cpus0.iq.FU_type_0::FloatMemWrite     43461654      7.19%    100.00% # Type of FU issued
system.switch_cpus0.iq.FU_type_0::IprAccess            0      0.00%    100.00% # Type of FU issued
system.switch_cpus0.iq.FU_type_0::InstPrefetch            0      0.00%    100.00% # Type of FU issued
system.switch_cpus0.iq.FU_type_0::total     604656493                       # Type of FU issued
system.switch_cpus0.iq.fp_alu_accesses      359838786                       # Number of floating point alu accesses
system.switch_cpus0.iq.fp_inst_queue_reads    704804639                       # Number of floating instruction queue reads
system.switch_cpus0.iq.fp_inst_queue_wakeup_accesses    336645260                       # Number of floating instruction queue wakeup accesses
system.switch_cpus0.iq.fp_inst_queue_writes    389209517                       # Number of floating instruction queue writes
system.switch_cpus0.iq.fu_busy_cnt           24860106                       # FU busy when requested
system.switch_cpus0.iq.fu_busy_rate          0.041114                       # FU busy rate (busy events/executed inst)
system.switch_cpus0.iq.fu_full::No_OpClass            0      0.00%      0.00% # attempts to use FU when none available
system.switch_cpus0.iq.fu_full::IntAlu        1257699      5.06%      5.06% # attempts to use FU when none available
system.switch_cpus0.iq.fu_full::IntMult             0      0.00%      5.06% # attempts to use FU when none available
system.switch_cpus0.iq.fu_full::IntDiv              0      0.00%      5.06% # attempts to use FU when none available
system.switch_cpus0.iq.fu_full::FloatAdd        22465      0.09%      5.15% # attempts to use FU when none available
system.switch_cpus0.iq.fu_full::FloatCmp            0      0.00%      5.15% # attempts to use FU when none available
system.switch_cpus0.iq.fu_full::FloatCvt            0      0.00%      5.15% # attempts to use FU when none available
system.switch_cpus0.iq.fu_full::FloatMult            0      0.00%      5.15% # attempts to use FU when none available
system.switch_cpus0.iq.fu_full::FloatMultAcc            0      0.00%      5.15% # attempts to use FU when none available
system.switch_cpus0.iq.fu_full::FloatDiv            0      0.00%      5.15% # attempts to use FU when none available
system.switch_cpus0.iq.fu_full::FloatMisc            0      0.00%      5.15% # attempts to use FU when none available
system.switch_cpus0.iq.fu_full::FloatSqrt            0      0.00%      5.15% # attempts to use FU when none available
system.switch_cpus0.iq.fu_full::SimdAdd             0      0.00%      5.15% # attempts to use FU when none available
system.switch_cpus0.iq.fu_full::SimdAddAcc            0      0.00%      5.15% # attempts to use FU when none available
system.switch_cpus0.iq.fu_full::SimdAlu             0      0.00%      5.15% # attempts to use FU when none available
system.switch_cpus0.iq.fu_full::SimdCmp             0      0.00%      5.15% # attempts to use FU when none available
system.switch_cpus0.iq.fu_full::SimdCvt             0      0.00%      5.15% # attempts to use FU when none available
system.switch_cpus0.iq.fu_full::SimdMisc            0      0.00%      5.15% # attempts to use FU when none available
system.switch_cpus0.iq.fu_full::SimdMult            0      0.00%      5.15% # attempts to use FU when none available
system.switch_cpus0.iq.fu_full::SimdMultAcc            0      0.00%      5.15% # attempts to use FU when none available
system.switch_cpus0.iq.fu_full::SimdShift            0      0.00%      5.15% # attempts to use FU when none available
system.switch_cpus0.iq.fu_full::SimdShiftAcc            0      0.00%      5.15% # attempts to use FU when none available
system.switch_cpus0.iq.fu_full::SimdDiv             0      0.00%      5.15% # attempts to use FU when none available
system.switch_cpus0.iq.fu_full::SimdSqrt            0      0.00%      5.15% # attempts to use FU when none available
system.switch_cpus0.iq.fu_full::SimdFloatAdd       214600      0.86%      6.01% # attempts to use FU when none available
system.switch_cpus0.iq.fu_full::SimdFloatAlu            0      0.00%      6.01% # attempts to use FU when none available
system.switch_cpus0.iq.fu_full::SimdFloatCmp       900762      3.62%      9.64% # attempts to use FU when none available
system.switch_cpus0.iq.fu_full::SimdFloatCvt            0      0.00%      9.64% # attempts to use FU when none available
system.switch_cpus0.iq.fu_full::SimdFloatDiv            0      0.00%      9.64% # attempts to use FU when none available
system.switch_cpus0.iq.fu_full::SimdFloatMisc            0      0.00%      9.64% # attempts to use FU when none available
system.switch_cpus0.iq.fu_full::SimdFloatMult        26226      0.11%      9.74% # attempts to use FU when none available
system.switch_cpus0.iq.fu_full::SimdFloatMultAcc            0      0.00%      9.74% # attempts to use FU when none available
system.switch_cpus0.iq.fu_full::SimdFloatSqrt            0      0.00%      9.74% # attempts to use FU when none available
system.switch_cpus0.iq.fu_full::SimdReduceAdd            0      0.00%      9.74% # attempts to use FU when none available
system.switch_cpus0.iq.fu_full::SimdReduceAlu            0      0.00%      9.74% # attempts to use FU when none available
system.switch_cpus0.iq.fu_full::SimdReduceCmp            0      0.00%      9.74% # attempts to use FU when none available
system.switch_cpus0.iq.fu_full::SimdFloatReduceAdd            0      0.00%      9.74% # attempts to use FU when none available
system.switch_cpus0.iq.fu_full::SimdFloatReduceCmp            0      0.00%      9.74% # attempts to use FU when none available
system.switch_cpus0.iq.fu_full::SimdAes             0      0.00%      9.74% # attempts to use FU when none available
system.switch_cpus0.iq.fu_full::SimdAesMix            0      0.00%      9.74% # attempts to use FU when none available
system.switch_cpus0.iq.fu_full::SimdSha1Hash            0      0.00%      9.74% # attempts to use FU when none available
system.switch_cpus0.iq.fu_full::SimdSha1Hash2            0      0.00%      9.74% # attempts to use FU when none available
system.switch_cpus0.iq.fu_full::SimdSha256Hash            0      0.00%      9.74% # attempts to use FU when none available
system.switch_cpus0.iq.fu_full::SimdSha256Hash2            0      0.00%      9.74% # attempts to use FU when none available
system.switch_cpus0.iq.fu_full::SimdShaSigma2            0      0.00%      9.74% # attempts to use FU when none available
system.switch_cpus0.iq.fu_full::SimdShaSigma3            0      0.00%      9.74% # attempts to use FU when none available
system.switch_cpus0.iq.fu_full::SimdPredAlu            0      0.00%      9.74% # attempts to use FU when none available
system.switch_cpus0.iq.fu_full::MemRead       1821149      7.33%     17.07% # attempts to use FU when none available
system.switch_cpus0.iq.fu_full::MemWrite      6912861     27.81%     44.87% # attempts to use FU when none available
system.switch_cpus0.iq.fu_full::FloatMemRead      9968355     40.10%     84.97% # attempts to use FU when none available
system.switch_cpus0.iq.fu_full::FloatMemWrite      3735989     15.03%    100.00% # attempts to use FU when none available
system.switch_cpus0.iq.fu_full::IprAccess            0      0.00%    100.00% # attempts to use FU when none available
system.switch_cpus0.iq.fu_full::InstPrefetch            0      0.00%    100.00% # attempts to use FU when none available
system.switch_cpus0.iq.int_alu_accesses     256503417                       # Number of integer alu accesses
system.switch_cpus0.iq.int_inst_queue_reads   2244190565                       # Number of integer instruction queue reads
system.switch_cpus0.iq.int_inst_queue_wakeup_accesses    243588857                       # Number of integer instruction queue wakeup accesses
system.switch_cpus0.iq.int_inst_queue_writes    377838379                       # Number of integer instruction queue writes
system.switch_cpus0.iq.iqInstsAdded         606952993                       # Number of instructions added to the IQ (excludes non-spec)
system.switch_cpus0.iq.iqInstsIssued        604656493                       # Number of instructions issued
system.switch_cpus0.iq.iqNonSpecInstsAdded        10436                       # Number of non-speculative instructions added to the IQ
system.switch_cpus0.iq.iqSquashedInstsExamined    160077054                       # Number of squashed instructions iterated over during squash; mainly for profiling
system.switch_cpus0.iq.iqSquashedInstsIssued       192985                       # Number of squashed instructions issued
system.switch_cpus0.iq.iqSquashedNonSpecRemoved         9395                       # Number of squashed non-spec instructions that were removed
system.switch_cpus0.iq.iqSquashedOperandsExamined     52669115                       # Number of squashed operands that are examined and possibly removed from graph
system.switch_cpus0.iq.issued_per_cycle::samples   1714629127                       # Number of insts issued each cycle
system.switch_cpus0.iq.issued_per_cycle::mean     0.352646                       # Number of insts issued each cycle
system.switch_cpus0.iq.issued_per_cycle::stdev     1.291202                       # Number of insts issued each cycle
system.switch_cpus0.iq.issued_per_cycle::underflows            0      0.00%      0.00% # Number of insts issued each cycle
system.switch_cpus0.iq.issued_per_cycle::0   1547449221     90.25%     90.25% # Number of insts issued each cycle
system.switch_cpus0.iq.issued_per_cycle::1     41169956      2.40%     92.65% # Number of insts issued each cycle
system.switch_cpus0.iq.issued_per_cycle::2     28196396      1.64%     94.30% # Number of insts issued each cycle
system.switch_cpus0.iq.issued_per_cycle::3     20895769      1.22%     95.51% # Number of insts issued each cycle
system.switch_cpus0.iq.issued_per_cycle::4     20318431      1.19%     96.70% # Number of insts issued each cycle
system.switch_cpus0.iq.issued_per_cycle::5     15926819      0.93%     97.63% # Number of insts issued each cycle
system.switch_cpus0.iq.issued_per_cycle::6     15881531      0.93%     98.55% # Number of insts issued each cycle
system.switch_cpus0.iq.issued_per_cycle::7     10118599      0.59%     99.14% # Number of insts issued each cycle
system.switch_cpus0.iq.issued_per_cycle::8     14672405      0.86%    100.00% # Number of insts issued each cycle
system.switch_cpus0.iq.issued_per_cycle::overflows            0      0.00%    100.00% # Number of insts issued each cycle
system.switch_cpus0.iq.issued_per_cycle::min_value            0                       # Number of insts issued each cycle
system.switch_cpus0.iq.issued_per_cycle::max_value            8                       # Number of insts issued each cycle
system.switch_cpus0.iq.issued_per_cycle::total   1714629127                       # Number of insts issued each cycle
system.switch_cpus0.iq.rate                  0.352637                       # Inst issue rate
system.switch_cpus0.iq.vec_alu_accesses             0                       # Number of vector alu accesses
system.switch_cpus0.iq.vec_inst_queue_reads            0                       # Number of vector instruction queue reads
system.switch_cpus0.iq.vec_inst_queue_wakeup_accesses            0                       # Number of vector instruction queue wakeup accesses
system.switch_cpus0.iq.vec_inst_queue_writes            0                       # Number of vector instruction queue writes
system.switch_cpus0.memDep0.conflictingLoads     17467954                       # Number of conflicting loads.
system.switch_cpus0.memDep0.conflictingStores     16727554                       # Number of conflicting stores.
system.switch_cpus0.memDep0.insertedLoads    116220686                       # Number of loads inserted to the mem dependence unit.
system.switch_cpus0.memDep0.insertedStores     66669292                       # Number of stores inserted to the mem dependence unit.
system.switch_cpus0.misc_regfile_reads      248414772                       # number of misc regfile reads
system.switch_cpus0.misc_regfile_writes             1                       # number of misc regfile writes
system.switch_cpus0.numCycles              1714671696                       # number of cpu cycles simulated
system.switch_cpus0.numWorkItemsCompleted            0                       # number of work items this cpu completed
system.switch_cpus0.numWorkItemsStarted             0                       # number of work items this cpu started
system.switch_cpus0.timesIdled                    142                       # Number of times that the entire CPU went into an idle state and unscheduled itself
system.switch_cpus1.cc_regfile_reads        189541292                       # number of cc regfile reads
system.switch_cpus1.cc_regfile_writes       118553296                       # number of cc regfile writes
system.switch_cpus1.committedInsts          236531834                       # Number of Instructions Simulated
system.switch_cpus1.committedOps            421923739                       # Number of Ops (including micro ops) Simulated
system.switch_cpus1.cpi                      7.249222                       # CPI: Cycles Per Instruction
system.switch_cpus1.cpi_total                7.249222                       # CPI: Total CPI of All Threads
system.switch_cpus1.fp_regfile_reads        365891962                       # number of floating regfile reads
system.switch_cpus1.fp_regfile_writes       275092195                       # number of floating regfile writes
system.switch_cpus1.idleCycles                  45172                       # Total number of cycles that the CPU has spent unscheduled due to idling
system.switch_cpus1.iew.branchMispredicts       585482                       # Number of branch mispredicts detected at execute
system.switch_cpus1.iew.exec_branches        27697321                       # Number of branches executed
system.switch_cpus1.iew.exec_nop                    0                       # number of nop insts executed
system.switch_cpus1.iew.exec_rate            0.335312                       # Inst execution rate
system.switch_cpus1.iew.exec_refs           180082606                       # number of memory reference insts executed
system.switch_cpus1.iew.exec_stores          62683287                       # Number of stores executed
system.switch_cpus1.iew.exec_swp                    0                       # number of swp insts executed
system.switch_cpus1.iew.iewBlockCycles      312404127                       # Number of cycles IEW is blocking
system.switch_cpus1.iew.iewDispLoadInsts    111099927                       # Number of dispatched load instructions
system.switch_cpus1.iew.iewDispNonSpecInsts           70                       # Number of dispatched non-speculative instructions
system.switch_cpus1.iew.iewDispSquashedInsts         7390                       # Number of squashed instructions skipped by dispatch
system.switch_cpus1.iew.iewDispStoreInsts     64075449                       # Number of dispatched store instructions
system.switch_cpus1.iew.iewDispatchedInsts    577500262                       # Number of instructions dispatched to IQ
system.switch_cpus1.iew.iewExecLoadInsts    117399319                       # Number of load instructions executed
system.switch_cpus1.iew.iewExecSquashedInsts      1162515                       # Number of squashed instructions skipped in execute
system.switch_cpus1.iew.iewExecutedInsts    574949610                       # Number of executed instructions
system.switch_cpus1.iew.iewIQFullEvents       1701587                       # Number of times the IQ has become full, causing a stall
system.switch_cpus1.iew.iewIdleCycles               0                       # Number of cycles IEW is idle
system.switch_cpus1.iew.iewLSQFullEvents    369995473                       # Number of times the LSQ has become full, causing a stall
system.switch_cpus1.iew.iewSquashCycles       1616164                       # Number of cycles IEW is squashing
system.switch_cpus1.iew.iewUnblockCycles    372658909                       # Number of cycles IEW is unblocking
system.switch_cpus1.iew.memOrderViolationEvents         5764                       # Number of memory order violations
system.switch_cpus1.iew.predictedNotTakenIncorrect       294891                       # Number of branches that were predicted not taken incorrectly
system.switch_cpus1.iew.predictedTakenIncorrect       290591                       # Number of branches that were predicted taken incorrectly
system.switch_cpus1.iew.wb_consumers        526960578                       # num instructions consuming a value
system.switch_cpus1.iew.wb_count            552086566                       # cumulative count of insts written-back
system.switch_cpus1.iew.wb_fanout            0.619609                       # average fanout of values written-back
system.switch_cpus1.iew.wb_producers        326509561                       # num instructions producing a value
system.switch_cpus1.iew.wb_rate              0.321978                       # insts written-back per cycle
system.switch_cpus1.iew.wb_sent             564992314                       # cumulative count of insts sent to commit
system.switch_cpus1.int_regfile_reads       567438110                       # number of integer regfile reads
system.switch_cpus1.int_regfile_writes      181430661                       # number of integer regfile writes
system.switch_cpus1.ipc                      0.137946                       # IPC: Instructions Per Cycle
system.switch_cpus1.ipc_total                0.137946                       # IPC: Total IPC of All Threads
system.switch_cpus1.iq.FU_type_0::No_OpClass     12873527      2.23%      2.23% # Type of FU issued
system.switch_cpus1.iq.FU_type_0::IntAlu    237249324     41.18%     43.42% # Type of FU issued
system.switch_cpus1.iq.FU_type_0::IntMult            0      0.00%     43.42% # Type of FU issued
system.switch_cpus1.iq.FU_type_0::IntDiv            0      0.00%     43.42% # Type of FU issued
system.switch_cpus1.iq.FU_type_0::FloatAdd     69930770     12.14%     55.55% # Type of FU issued
system.switch_cpus1.iq.FU_type_0::FloatCmp            0      0.00%     55.55% # Type of FU issued
system.switch_cpus1.iq.FU_type_0::FloatCvt           14      0.00%     55.55% # Type of FU issued
system.switch_cpus1.iq.FU_type_0::FloatMult            0      0.00%     55.55% # Type of FU issued
system.switch_cpus1.iq.FU_type_0::FloatMultAcc            0      0.00%     55.55% # Type of FU issued
system.switch_cpus1.iq.FU_type_0::FloatDiv            0      0.00%     55.55% # Type of FU issued
system.switch_cpus1.iq.FU_type_0::FloatMisc            0      0.00%     55.55% # Type of FU issued
system.switch_cpus1.iq.FU_type_0::FloatSqrt            0      0.00%     55.55% # Type of FU issued
system.switch_cpus1.iq.FU_type_0::SimdAdd            0      0.00%     55.55% # Type of FU issued
system.switch_cpus1.iq.FU_type_0::SimdAddAcc            0      0.00%     55.55% # Type of FU issued
system.switch_cpus1.iq.FU_type_0::SimdAlu        36114      0.01%     55.56% # Type of FU issued
system.switch_cpus1.iq.FU_type_0::SimdCmp            0      0.00%     55.56% # Type of FU issued
system.switch_cpus1.iq.FU_type_0::SimdCvt            0      0.00%     55.56% # Type of FU issued
system.switch_cpus1.iq.FU_type_0::SimdMisc            0      0.00%     55.56% # Type of FU issued
system.switch_cpus1.iq.FU_type_0::SimdMult            0      0.00%     55.56% # Type of FU issued
system.switch_cpus1.iq.FU_type_0::SimdMultAcc            0      0.00%     55.56% # Type of FU issued
system.switch_cpus1.iq.FU_type_0::SimdShift            0      0.00%     55.56% # Type of FU issued
system.switch_cpus1.iq.FU_type_0::SimdShiftAcc            0      0.00%     55.56% # Type of FU issued
system.switch_cpus1.iq.FU_type_0::SimdDiv            0      0.00%     55.56% # Type of FU issued
system.switch_cpus1.iq.FU_type_0::SimdSqrt            0      0.00%     55.56% # Type of FU issued
system.switch_cpus1.iq.FU_type_0::SimdFloatAdd     27517243      4.78%     60.34% # Type of FU issued
system.switch_cpus1.iq.FU_type_0::SimdFloatAlu            0      0.00%     60.34% # Type of FU issued
system.switch_cpus1.iq.FU_type_0::SimdFloatCmp     28379127      4.93%     65.26% # Type of FU issued
system.switch_cpus1.iq.FU_type_0::SimdFloatCvt      5376239      0.93%     66.20% # Type of FU issued
system.switch_cpus1.iq.FU_type_0::SimdFloatDiv            0      0.00%     66.20% # Type of FU issued
system.switch_cpus1.iq.FU_type_0::SimdFloatMisc            0      0.00%     66.20% # Type of FU issued
system.switch_cpus1.iq.FU_type_0::SimdFloatMult     14384223      2.50%     68.69% # Type of FU issued
system.switch_cpus1.iq.FU_type_0::SimdFloatMultAcc            0      0.00%     68.69% # Type of FU issued
system.switch_cpus1.iq.FU_type_0::SimdFloatSqrt            0      0.00%     68.69% # Type of FU issued
system.switch_cpus1.iq.FU_type_0::SimdReduceAdd            0      0.00%     68.69% # Type of FU issued
system.switch_cpus1.iq.FU_type_0::SimdReduceAlu            0      0.00%     68.69% # Type of FU issued
system.switch_cpus1.iq.FU_type_0::SimdReduceCmp            0      0.00%     68.69% # Type of FU issued
system.switch_cpus1.iq.FU_type_0::SimdFloatReduceAdd            0      0.00%     68.69% # Type of FU issued
system.switch_cpus1.iq.FU_type_0::SimdFloatReduceCmp            0      0.00%     68.69% # Type of FU issued
system.switch_cpus1.iq.FU_type_0::SimdAes            0      0.00%     68.69% # Type of FU issued
system.switch_cpus1.iq.FU_type_0::SimdAesMix            0      0.00%     68.69% # Type of FU issued
system.switch_cpus1.iq.FU_type_0::SimdSha1Hash            0      0.00%     68.69% # Type of FU issued
[...]
system.switch_cpus3.commit.numCommittedDist::0   1596140308     94.07%     94.07% # Number of insts commited each cycle
system.switch_cpus3.commit.numCommittedDist::1     36516886      2.15%     96.23% # Number of insts commited each cycle
system.switch_cpus3.commit.numCommittedDist::2      4764532      0.28%     96.51% # Number of insts commited each cycle
system.switch_cpus3.commit.numCommittedDist::3      8820764      0.52%     97.03% # Number of insts commited each cycle
system.switch_cpus3.commit.numCommittedDist::4     10171220      0.60%     97.63% # Number of insts commited each cycle
system.switch_cpus3.commit.numCommittedDist::5      2976571      0.18%     97.80% # Number of insts commited each cycle
system.switch_cpus3.commit.numCommittedDist::6      3976534      0.23%     98.04% # Number of insts commited each cycle
system.switch_cpus3.commit.numCommittedDist::7      3674209      0.22%     98.25% # Number of insts commited each cycle
system.switch_cpus3.commit.numCommittedDist::8     29647994      1.75%    100.00% # Number of insts commited each cycle
system.switch_cpus3.commit.numCommittedDist::overflows            0      0.00%    100.00% # Number of insts commited each cycle
system.switch_cpus3.commit.numCommittedDist::min_value            0                       # Number of insts commited each cycle
system.switch_cpus3.commit.numCommittedDist::max_value            8                       # Number of insts commited each cycle
system.switch_cpus3.commit.numCommittedDist::total   1696689018                       # Number of insts commited each cycle
system.switch_cpus3.commit.instsCommitted    232770913                       # Number of instructions committed
system.switch_cpus3.commit.opsCommitted     414838596                       # Number of ops (including micro ops) committed
system.switch_cpus3.commit.memRefs          100079313                       # Number of memory references committed
system.switch_cpus3.commit.loads             74723842                       # Number of loads committed
system.switch_cpus3.commit.amos                     0                       # Number of atomic instructions committed
system.switch_cpus3.commit.membars                 40                       # Number of memory barriers committed
system.switch_cpus3.commit.branches          21299104                       # Number of branches committed
system.switch_cpus3.commit.vector                   0                       # Number of committed Vector instructions.
system.switch_cpus3.commit.floating         270966099                       # Number of committed floating point instructions.
system.switch_cpus3.commit.integer          221865202                       # Number of committed integer instructions.
system.switch_cpus3.commit.functionCalls       668266                       # Number of function calls committed.
system.switch_cpus3.commit.committedInstType_0::No_OpClass       130722      0.03%      0.03% # Class of committed instruction
system.switch_cpus3.commit.committedInstType_0::IntAlu    171783121     41.41%     41.44% # Class of committed instruction
system.switch_cpus3.commit.committedInstType_0::IntMult            0      0.00%     41.44% # Class of committed instruction
system.switch_cpus3.commit.committedInstType_0::IntDiv            0      0.00%     41.44% # Class of committed instruction
system.switch_cpus3.commit.committedInstType_0::FloatAdd     68306364     16.47%     57.91% # Class of committed instruction
system.switch_cpus3.commit.committedInstType_0::FloatCmp            0      0.00%     57.91% # Class of committed instruction
system.switch_cpus3.commit.committedInstType_0::FloatCvt            0      0.00%     57.91% # Class of committed instruction
system.switch_cpus3.commit.committedInstType_0::FloatMult            0      0.00%     57.91% # Class of committed instruction
system.switch_cpus3.commit.committedInstType_0::FloatMultAcc            0      0.00%     57.91% # Class of committed instruction
system.switch_cpus3.commit.committedInstType_0::FloatDiv            0      0.00%     57.91% # Class of committed instruction
system.switch_cpus3.commit.committedInstType_0::FloatMisc            0      0.00%     57.91% # Class of committed instruction
system.switch_cpus3.commit.committedInstType_0::FloatSqrt            0      0.00%     57.91% # Class of committed instruction
system.switch_cpus3.commit.committedInstType_0::SimdAdd            0      0.00%     57.91% # Class of committed instruction
system.switch_cpus3.commit.committedInstType_0::SimdAddAcc            0      0.00%     57.91% # Class of committed instruction
system.switch_cpus3.commit.committedInstType_0::SimdAlu        26154      0.01%     57.91% # Class of committed instruction
system.switch_cpus3.commit.committedInstType_0::SimdCmp            0      0.00%     57.91% # Class of committed instruction
system.switch_cpus3.commit.committedInstType_0::SimdCvt            0      0.00%     57.91% # Class of committed instruction
system.switch_cpus3.commit.committedInstType_0::SimdMisc            0      0.00%     57.91% # Class of committed instruction
system.switch_cpus3.commit.committedInstType_0::SimdMult            0      0.00%     57.91% # Class of committed instruction
system.switch_cpus3.commit.committedInstType_0::SimdMultAcc            0      0.00%     57.91% # Class of committed instruction
system.switch_cpus3.commit.committedInstType_0::SimdShift            0      0.00%     57.91% # Class of committed instruction
system.switch_cpus3.commit.committedInstType_0::SimdShiftAcc            0      0.00%     57.91% # Class of committed instruction
system.switch_cpus3.commit.committedInstType_0::SimdDiv            0      0.00%     57.91% # Class of committed instruction
system.switch_cpus3.commit.committedInstType_0::SimdSqrt            0      0.00%     57.91% # Class of committed instruction
system.switch_cpus3.commit.committedInstType_0::SimdFloatAdd     27111309      6.54%     64.45% # Class of committed instruction
system.switch_cpus3.commit.committedInstType_0::SimdFloatAlu            0      0.00%     64.45% # Class of committed instruction
system.switch_cpus3.commit.committedInstType_0::SimdFloatCmp     27967559      6.74%     71.19% # Class of committed instruction
system.switch_cpus3.commit.committedInstType_0::SimdFloatCvt      5255076      1.27%     72.46% # Class of committed instruction
system.switch_cpus3.commit.committedInstType_0::SimdFloatDiv            0      0.00%     72.46% # Class of committed instruction
system.switch_cpus3.commit.committedInstType_0::SimdFloatMisc            0      0.00%     72.46% # Class of committed instruction
system.switch_cpus3.commit.committedInstType_0::SimdFloatMult     14178978      3.42%     75.88% # Class of committed instruction
system.switch_cpus3.commit.committedInstType_0::SimdFloatMultAcc            0      0.00%     75.88% # Class of committed instruction
system.switch_cpus3.commit.committedInstType_0::SimdFloatSqrt            0      0.00%     75.88% # Class of committed instruction
system.switch_cpus3.commit.committedInstType_0::SimdReduceAdd            0      0.00%     75.88% # Class of committed instruction
system.switch_cpus3.commit.committedInstType_0::SimdReduceAlu            0      0.00%     75.88% # Class of committed instruction
system.switch_cpus3.commit.committedInstType_0::SimdReduceCmp            0      0.00%     75.88% # Class of committed instruction
system.switch_cpus3.commit.committedInstType_0::SimdFloatReduceAdd            0      0.00%     75.88% # Class of committed instruction
system.switch_cpus3.commit.committedInstType_0::SimdFloatReduceCmp            0      0.00%     75.88% # Class of committed instruction
system.switch_cpus3.commit.committedInstType_0::SimdAes            0      0.00%     75.88% # Class of committed instruction
system.switch_cpus3.commit.committedInstType_0::SimdAesMix            0      0.00%     75.88% # Class of committed instruction
system.switch_cpus3.commit.committedInstType_0::SimdSha1Hash            0      0.00%     75.88% # Class of committed instruction
system.switch_cpus3.commit.committedInstType_0::SimdSha1Hash2            0      0.00%     75.88% # Class of committed instruction
system.switch_cpus3.commit.committedInstType_0::SimdSha256Hash            0      0.00%     75.88% # Class of committed instruction
system.switch_cpus3.commit.committedInstType_0::SimdSha256Hash2            0      0.00%     75.88% # Class of committed instruction
system.switch_cpus3.commit.committedInstType_0::SimdShaSigma2            0      0.00%     75.88% # Class of committed instruction
system.switch_cpus3.commit.committedInstType_0::SimdShaSigma3            0      0.00%     75.88% # Class of committed instruction
system.switch_cpus3.commit.committedInstType_0::SimdPredAlu            0      0.00%     75.88% # Class of committed instruction
system.switch_cpus3.commit.committedInstType_0::MemRead     15113943      3.64%     79.52% # Class of committed instruction
system.switch_cpus3.commit.committedInstType_0::MemWrite      6837807      1.65%     81.17% # Class of committed instruction
system.switch_cpus3.commit.committedInstType_0::FloatMemRead     59609899     14.37%     95.54% # Class of committed instruction
system.switch_cpus3.commit.committedInstType_0::FloatMemWrite     18517664      4.46%    100.00% # Class of committed instruction
system.switch_cpus3.commit.committedInstType_0::IprAccess            0      0.00%    100.00% # Class of committed instruction
system.switch_cpus3.commit.committedInstType_0::InstPrefetch            0      0.00%    100.00% # Class of committed instruction
system.switch_cpus3.commit.committedInstType_0::total    414838596                       # Class of committed instruction
system.switch_cpus3.commit.commitEligibleSamples     29647994                       # number cycles where commit BW limit reached
system.switch_cpus3.decode.idleCycles        14815853                       # Number of cycles decode is idle
system.switch_cpus3.decode.blockedCycles   1621451181                       # Number of cycles decode is blocked
system.switch_cpus3.decode.runCycles         47675921                       # Number of cycles decode is running
system.switch_cpus3.decode.unblockCycles     29079066                       # Number of cycles decode is unblocking
system.switch_cpus3.decode.squashCycles       1592611                       # Number of cycles decode is squashing
system.switch_cpus3.decode.branchResolved     16480412                       # Number of times decode resolved a  branch
system.switch_cpus3.decode.branchMispred          260                       # Number of times decode detected a branch misprediction
system.switch_cpus3.decode.decodedInsts     586342147                       # Number of instructions handled by decode
system.switch_cpus3.decode.squashedInsts         1499                       # Number of squashed instructions handled by decode
system.switch_cpus3.dtb.rdAccesses          116866441                       # TLB accesses on read requests
system.switch_cpus3.dtb.wrAccesses           62019102                       # TLB accesses on write requests
system.switch_cpus3.dtb.rdMisses              2709629                       # TLB misses on read requests
system.switch_cpus3.dtb.wrMisses               328439                       # TLB misses on write requests
system.switch_cpus3.dtb.walker.power_state.pwrStateResidencyTicks::UNDEFINED 18790147929780                       # Cumulative time (in ticks) in various power states
system.switch_cpus3.fetch.icacheStallCycles       792648                       # Number of cycles fetch is stalled on an Icache miss
system.switch_cpus3.fetch.insts             338532270                       # Number of instructions fetch has processed
system.switch_cpus3.fetch.branches           33853656                       # Number of branches that fetch encountered
system.switch_cpus3.fetch.predictedBranches     20021930                       # Number of branches that fetch has predicted taken
system.switch_cpus3.fetch.cycles           1712228928                       # Number of cycles fetch has run and was not squashing or blocked
system.switch_cpus3.fetch.squashCycles        3185722                       # Number of cycles fetch has spent squashing
system.switch_cpus3.fetch.miscStallCycles            9                       # Number of cycles fetch has spent waiting on interrupts,or bad addresses, or out of MSHRs
system.switch_cpus3.fetch.pendingTrapStallCycles          189                       # Number of stall cycles due to pending traps
system.switch_cpus3.fetch.cacheLines         43629612                       # Number of cache lines fetched
system.switch_cpus3.fetch.icacheSquashes          193                       # Number of outstanding Icache misses that were squashed
system.switch_cpus3.fetch.nisnDist::samples   1714614635                       # Number of instructions fetched each cycle (Total)
system.switch_cpus3.fetch.nisnDist::mean     0.377231                       # Number of instructions fetched each cycle (Total)
system.switch_cpus3.fetch.nisnDist::stdev     1.577441                       # Number of instructions fetched each cycle (Total)
system.switch_cpus3.fetch.nisnDist::underflows            0      0.00%      0.00% # Number of instructions fetched each cycle (Total)
system.switch_cpus3.fetch.nisnDist::0      1606623187     93.70%     93.70% # Number of instructions fetched each cycle (Total)
system.switch_cpus3.fetch.nisnDist::1         4664622      0.27%     93.97% # Number of instructions fetched each cycle (Total)
system.switch_cpus3.fetch.nisnDist::2        12268084      0.72%     94.69% # Number of instructions fetched each cycle (Total)
system.switch_cpus3.fetch.nisnDist::3         7179413      0.42%     95.11% # Number of instructions fetched each cycle (Total)
system.switch_cpus3.fetch.nisnDist::4         6510956      0.38%     95.49% # Number of instructions fetched each cycle (Total)
system.switch_cpus3.fetch.nisnDist::5         9633518      0.56%     96.05% # Number of instructions fetched each cycle (Total)
system.switch_cpus3.fetch.nisnDist::6         6235994      0.36%     96.41% # Number of instructions fetched each cycle (Total)
system.switch_cpus3.fetch.nisnDist::7         7552146      0.44%     96.85% # Number of instructions fetched each cycle (Total)
system.switch_cpus3.fetch.nisnDist::8        53946715      3.15%    100.00% # Number of instructions fetched each cycle (Total)
system.switch_cpus3.fetch.nisnDist::overflows            0      0.00%    100.00% # Number of instructions fetched each cycle (Total)
system.switch_cpus3.fetch.nisnDist::min_value            0                       # Number of instructions fetched each cycle (Total)
system.switch_cpus3.fetch.nisnDist::max_value            8                       # Number of instructions fetched each cycle (Total)
system.switch_cpus3.fetch.nisnDist::total   1714614635                       # Number of instructions fetched each cycle (Total)
system.switch_cpus3.fetch.branchRate         0.019744                       # Number of branch fetches per cycle
system.switch_cpus3.fetch.rate               0.197433                       # Number of inst fetches per cycle
system.switch_cpus3.itb.rdAccesses                  0                       # TLB accesses on read requests
system.switch_cpus3.itb.wrAccesses           43629663                       # TLB accesses on write requests
system.switch_cpus3.itb.rdMisses                    0                       # TLB misses on read requests
system.switch_cpus3.itb.wrMisses                   80                       # TLB misses on write requests
system.switch_cpus3.itb.walker.power_state.pwrStateResidencyTicks::UNDEFINED 18790147929780                       # Cumulative time (in ticks) in various power states
system.switch_cpus3.lsq0.forwLoads             796686                       # Number of loads that had data forwarded from stores
system.switch_cpus3.lsq0.squashedLoads       34943434                       # Number of loads squashed
system.switch_cpus3.lsq0.ignoredResponses          758                       # Number of memory responses ignored because the instruction is squashed
system.switch_cpus3.lsq0.memOrderViolation         4561                       # Number of memory ordering violations
system.switch_cpus3.lsq0.squashedStores      37984981                       # Number of stores squashed
system.switch_cpus3.lsq0.rescheduledLoads      6697041                       # Number of loads that were rescheduled
system.switch_cpus3.lsq0.blockedByCache          8913                       # Number of times an access to memory failed due to the cache being blocked
system.switch_cpus3.power_state.pwrStateResidencyTicks::OFF 570985685757                       # Cumulative time (in ticks) in various power states
system.switch_cpus3.rename.squashCycles       1592611                       # Number of cycles rename is squashing
system.switch_cpus3.rename.idleCycles        26075998                       # Number of cycles rename is idle
system.switch_cpus3.rename.blockCycles      959776754                       # Number of cycles rename is blocking
system.switch_cpus3.rename.serializeStallCycles            0                       # count of cycles rename stalledfor serializing inst
system.switch_cpus3.rename.runCycles         63641099                       # Number of cycles rename is running
system.switch_cpus3.rename.unblockCycles    663528170                       # Number of cycles rename is unblocking
system.switch_cpus3.rename.renamedInsts     573015223                       # Number of instructions processed by rename
system.switch_cpus3.rename.ROBFullEvents      9038581                       # Number of times rename has blocked due to ROB full
system.switch_cpus3.rename.IQFullEvents     152517677                       # Number of times rename has blocked due to IQ full
system.switch_cpus3.rename.LQFullEvents     296869485                       # Number of times rename has blocked due to LQ full
system.switch_cpus3.rename.SQFullEvents     328252243                       # Number of times rename has blocked due to SQ full
system.switch_cpus3.rename.renamedOperands    585270417                       # Number of destination operands rename has renamed
system.switch_cpus3.rename.lookups         1368764639                       # Number of register rename lookups that rename has made
system.switch_cpus3.rename.intLookups       566353333                       # Number of integer rename lookups
system.switch_cpus3.rename.fpLookups        364119890                       # Number of floating rename lookups
system.switch_cpus3.rename.committedMaps    439241055                       # Number of HB maps that are committed
system.switch_cpus3.rename.undoneMaps       146029280                       # Number of HB maps that are undone due to squashing
system.switch_cpus3.rename.serializing              0                       # count of serializing insts renamed
system.switch_cpus3.rename.tempSerializing            0                       # count of temporary serializing insts renamed
system.switch_cpus3.rename.skidInsts        162311497                       # count of insts added to the skid buffer
system.switch_cpus3.rob.reads              2198508878                       # The number of ROB reads
system.switch_cpus3.rob.writes             1108328069                       # The number of ROB writes
system.switch_cpus3.thread0.numInsts        232770913                       # Number of Instructions committed
system.switch_cpus3.thread0.numOps          414838596                       # Number of Ops committed
system.switch_cpus3.thread0.numMemRefs              0                       # Number of Memory References
system.voltage_domain.voltage                       1                       # Voltage in Volts

---------- End Simulation Statistics   ----------
