Command line:
./runscript_pride.sh povray RFM5.BR1.4C 4 2017 --rh_defense --rh_mitigation=RFM --rh_rfm_per_trefi=5 --rh_rfm_blast_radius=1 --rh_rfm_maxacts_per_trefi=79
Global frequency set at 1000000000000 ticks per second
RFM details - rfm_act_threshold: 15, blast_radius: 1, delay_per_rfm: 175000 ps. sample_rate: 0.062500
RH Defense config: RFM, Bus Delay: 0, rfms_per_trefi: 5, rfm_act_threshold: 15, blast_radius: 1,rfm_delay_per_act: 45000 ps.
DRAM config: RowsPerBank: 65536, BanksPerRank: 32, RanksPerChannel: 1
warn: Sockets disabled, not accepting gdb connections
warn: CoherentXBar system.cpu0.mmucache.mmubus has no snooping ports attached!
warn: CoherentXBar system.cpu1.mmucache.mmubus has no snooping ports attached!
warn: CoherentXBar system.cpu2.mmucache.mmubus has no snooping ports attached!
warn: CoherentXBar system.cpu3.mmucache.mmubus has no snooping ports attached!
warn: Checkpoints for file descriptors currently do not work.
warn: Checkpoints for file descriptors currently do not work.
warn: Checkpoints for file descriptors currently do not work.
warn: Checkpoints for file descriptors currently do not work.
gem5 Simulator System.  http://gem5.org
gem5 is copyrighted software; use the --copyright option for details.

gem5 version 20.1.0.5
gem5 compiled Jul 12 2024 12:42:38
gem5 started Jul 31 2024 17:53:01
gem5 executing on a07dda8b130c, pid 241650
command line: /home/user/PrIDE/performance/gem5/build/X86/gem5.opt --outdir=/home/user/PrIDE/performance/gem5/stats/pride_multiprogram_16GBmem_250Mn.SPEC2017.C4/RFM5.BR1.4C/povray /home/user/PrIDE/performance/gem5/configs/example/se_rq_spec_config_multicore.py --redirects /lib64=/home/utils/gcc-6.2.0/lib64 --benchmark=povray --benchmark_stdout=/home/user/PrIDE/performance/gem5/stats/pride_multiprogram_16GBmem_250Mn.SPEC2017.C4/RFM5.BR1.4C/povray/povray.out --benchmark_stderr=/home/user/PrIDE/performance/gem5/stats/pride_multiprogram_16GBmem_250Mn.SPEC2017.C4/RFM5.BR1.4C/povray/povray.err --spec-version=2017 --rh_defense --rh_mitigation=RFM --rh_rfm_per_trefi=5 --rh_rfm_blast_radius=1 --rh_rfm_maxacts_per_trefi=79 --num-cpus=4 --mem-size=16GB --mem-type=DDR5_2400_32x4 --mem-ranks=1 --mem-channels=1 --checkpoint-dir=/home/user/PrIDE/performance/gem5/cpts-DDR5/multiprogram_16GBmem_25Bn.SPEC2017.C4/povray-1-ref-x86 --checkpoint-restore=25000000000 --at-instruction --cpu-type DerivO3CPU --caches --l2cache --l1d_size=32kB --l1i_size=32kB --l2_size=256kB --l3_size=4MB --l1d_assoc=8 --l1i_assoc=8 --l2_assoc=16 --l3_assoc=16 --cpu-clock=3GHz --sys-clock=3GHz --maxinsts=250000000 --prog-interval=300Hz

info: Standard input is not a terminal, disabling listeners.
Benchmark- 0   povray
Selected benchmark
--> povray
CMD: ['/opt/spec2017/benchspec/CPU/511.povray_r/run/run_base_refrate_gem5_se-m64.0000/povray_r_base.gem5_se-m64', '/opt/spec2017/benchspec/CPU/511.povray_r/run/run_base_refrate_gem5_se-m64.0000/SPEC-benchmark-ref.ini']
CWD: /opt/spec2017/benchspec/CPU/511.povray_r/run/run_base_refrate_gem5_se-m64.0000/
Process stdout file: /home/user/PrIDE/performance/gem5/stats/pride_multiprogram_16GBmem_250Mn.SPEC2017.C4/RFM5.BR1.4C/povray/povray.out_0
Process stderr file: /home/user/PrIDE/performance/gem5/stats/pride_multiprogram_16GBmem_250Mn.SPEC2017.C4/RFM5.BR1.4C/povray/povray.err_0
Benchmark- 1   povray
Selected benchmark
--> povray
CMD: ['/opt/spec2017/benchspec/CPU/511.povray_r/run/run_base_refrate_gem5_se-m64.0000/povray_r_base.gem5_se-m64', '/opt/spec2017/benchspec/CPU/511.povray_r/run/run_base_refrate_gem5_se-m64.0000/SPEC-benchmark-ref.ini']
CWD: /opt/spec2017/benchspec/CPU/511.povray_r/run/run_base_refrate_gem5_se-m64.0000/
Process stdout file: /home/user/PrIDE/performance/gem5/stats/pride_multiprogram_16GBmem_250Mn.SPEC2017.C4/RFM5.BR1.4C/povray/povray.out_1
Process stderr file: /home/user/PrIDE/performance/gem5/stats/pride_multiprogram_16GBmem_250Mn.SPEC2017.C4/RFM5.BR1.4C/povray/povray.err_1
Benchmark- 2   povray
Selected benchmark
--> povray
CMD: ['/opt/spec2017/benchspec/CPU/511.povray_r/run/run_base_refrate_gem5_se-m64.0000/povray_r_base.gem5_se-m64', '/opt/spec2017/benchspec/CPU/511.povray_r/run/run_base_refrate_gem5_se-m64.0000/SPEC-benchmark-ref.ini']
CWD: /opt/spec2017/benchspec/CPU/511.povray_r/run/run_base_refrate_gem5_se-m64.0000/
Process stdout file: /home/user/PrIDE/performance/gem5/stats/pride_multiprogram_16GBmem_250Mn.SPEC2017.C4/RFM5.BR1.4C/povray/povray.out_2
Process stderr file: /home/user/PrIDE/performance/gem5/stats/pride_multiprogram_16GBmem_250Mn.SPEC2017.C4/RFM5.BR1.4C/povray/povray.err_2
Benchmark- 3   povray
Selected benchmark
--> povray
CMD: ['/opt/spec2017/benchspec/CPU/511.povray_r/run/run_base_refrate_gem5_se-m64.0000/povray_r_base.gem5_se-m64', '/opt/spec2017/benchspec/CPU/511.povray_r/run/run_base_refrate_gem5_se-m64.0000/SPEC-benchmark-ref.ini']
CWD: /opt/spec2017/benchspec/CPU/511.povray_r/run/run_base_refrate_gem5_se-m64.0000/
Process stdout file: /home/user/PrIDE/performance/gem5/stats/pride_multiprogram_16GBmem_250Mn.SPEC2017.C4/RFM5.BR1.4C/povray/povray.out_3
Process stderr file: /home/user/PrIDE/performance/gem5/stats/pride_multiprogram_16GBmem_250Mn.SPEC2017.C4/RFM5.BR1.4C/povray/povray.err_3
Workload-0: 
['/opt/spec2017/benchspec/CPU/511.povray_r/run/run_base_refrate_gem5_se-m64.0000/povray_r_base.gem5_se-m64', '/opt/spec2017/benchspec/CPU/511.povray_r/run/run_base_refrate_gem5_se-m64.0000/SPEC-benchmark-ref.ini']
Workload-1: 
['/opt/spec2017/benchspec/CPU/511.povray_r/run/run_base_refrate_gem5_se-m64.0000/povray_r_base.gem5_se-m64', '/opt/spec2017/benchspec/CPU/511.povray_r/run/run_base_refrate_gem5_se-m64.0000/SPEC-benchmark-ref.ini']
Workload-2: 
['/opt/spec2017/benchspec/CPU/511.povray_r/run/run_base_refrate_gem5_se-m64.0000/povray_r_base.gem5_se-m64', '/opt/spec2017/benchspec/CPU/511.povray_r/run/run_base_refrate_gem5_se-m64.0000/SPEC-benchmark-ref.ini']
Workload-3: 
['/opt/spec2017/benchspec/CPU/511.povray_r/run/run_base_refrate_gem5_se-m64.0000/povray_r_base.gem5_se-m64', '/opt/spec2017/benchspec/CPU/511.povray_r/run/run_base_refrate_gem5_se-m64.0000/SPEC-benchmark-ref.ini']
defense_enable:  True  detector:  MG  mitigation:  RFM  threshold:  800
mg_entries:  1700
rfm_maxacts_per_trefi:  79 rfm_per_trefi:  5 rfm_blast_radius:  1
Switch at curTick count:10000
warn: membus.master is deprecated. `master` is now called `mem_side_ports`
warn: No dot file generated. Please install pydot to generate the dot file and pdf.
info: Entering event queue @ 17895005580168.  Starting simulation...
info: Entering event queue @ 17895005590168.  Starting simulation...
warn: PowerState: Already in the requested power state, request ignored
Switched CPUS @ tick 17895005590168
switching cpus
**** REAL SIMULATION ****
info: Entering event queue @ 17895005590824.  Starting simulation...
17898338913501: Event_285: system.switch_cpus3 progress event, total committed:44463452, progress insts committed: 44463452, IPC: 004.4419
17898338913501: Event_284: system.switch_cpus2 progress event, total committed:44463650, progress insts committed: 44463650, IPC: 04.44192
17898338913501: Event_283: system.switch_cpus1 progress event, total committed:44466375, progress insts committed: 44466375, IPC: 04.44219
17898338913501: Event_282: system.switch_cpus0 progress event, total committed:44466200, progress insts committed: 44466200, IPC: 04.44217
17901672246834: Event_282: system.switch_cpus0 progress event, total committed:89825102, progress insts committed: 45358902, IPC: 04.53135
17901672246834: Event_283: system.switch_cpus1 progress event, total committed:89820061, progress insts committed: 45353686, IPC: 04.53083
17901672246834: Event_284: system.switch_cpus2 progress event, total committed:89839396, progress insts committed: 45375746, IPC: 04.53304
17901672246834: Event_285: system.switch_cpus3 progress event, total committed:89832565, progress insts committed: 45369113, IPC: 04.53237
17905005580167: Event_285: system.switch_cpus3 progress event, total committed:135342288, progress insts committed: 45509723, IPC: 04.54642
17905005580167: Event_284: system.switch_cpus2 progress event, total committed:135344287, progress insts committed: 45504891, IPC: 04.54594
17905005580167: Event_283: system.switch_cpus1 progress event, total committed:135324279, progress insts committed: 45504218, IPC: 04.54587
17905005580167: Event_282: system.switch_cpus0 progress event, total committed:135324746, progress insts committed: 45499644, IPC: 04.54541
17908338913500: Event_282: system.switch_cpus0 progress event, total committed:180781238, progress insts committed: 45456492, IPC: 004.5411
17908338913500: Event_283: system.switch_cpus1 progress event, total committed:180781380, progress insts committed: 45457101, IPC: 04.54116
17908338913500: Event_284: system.switch_cpus2 progress event, total committed:180808204, progress insts committed: 45463917, IPC: 04.54185
17908338913500: Event_285: system.switch_cpus3 progress event, total committed:180806470, progress insts committed: 45464182, IPC: 04.54187
17911672246833: Event_285: system.switch_cpus3 progress event, total committed:226478845, progress insts committed: 45672375, IPC: 04.56267
17911672246833: Event_284: system.switch_cpus2 progress event, total committed:226477446, progress insts committed: 45669242, IPC: 04.56236
17911672246833: Event_283: system.switch_cpus1 progress event, total committed:226436524, progress insts committed: 45655144, IPC: 04.56095
17911672246833: Event_282: system.switch_cpus0 progress event, total committed:226443516, progress insts committed: 45662278, IPC: 04.56166
17915005580166: Event_282: system.switch_cpus0 progress event, total committed:272137231, progress insts committed: 45693715, IPC: 004.5648
17915005580166: Event_283: system.switch_cpus1 progress event, total committed:272137071, progress insts committed: 45700547, IPC: 04.56548
17915005580166: Event_284: system.switch_cpus2 progress event, total committed:272174723, progress insts committed: 45697277, IPC: 04.56516
17915005580166: Event_285: system.switch_cpus3 progress event, total committed:272172114, progress insts committed: 45693269, IPC: 04.56476
17918338913499: Event_285: system.switch_cpus3 progress event, total committed:317942604, progress insts committed: 45770490, IPC: 04.57247
17918338913499: Event_284: system.switch_cpus2 progress event, total committed:317942917, progress insts committed: 45768194, IPC: 04.57224
17918338913499: Event_283: system.switch_cpus1 progress event, total committed:317903994, progress insts committed: 45766923, IPC: 04.57212
17918338913499: Event_282: system.switch_cpus0 progress event, total committed:317906629, progress insts committed: 45769398, IPC: 04.57236
17921672246832: Event_282: system.switch_cpus0 progress event, total committed:362950884, progress insts committed: 45044255, IPC: 04.49992
17921672246832: Event_283: system.switch_cpus1 progress event, total committed:362950818, progress insts committed: 45046824, IPC: 04.50018
17921672246832: Event_284: system.switch_cpus2 progress event, total committed:362995813, progress insts committed: 45052896, IPC: 04.50078
17921672246832: Event_285: system.switch_cpus3 progress event, total committed:362995850, progress insts committed: 45053246, IPC: 04.50082
17925005580165: Event_285: system.switch_cpus3 progress event, total committed:408091938, progress insts committed: 45096088, IPC: 004.5051
17925005580165: Event_284: system.switch_cpus2 progress event, total committed:408091847, progress insts committed: 45096034, IPC: 04.50509
17925005580165: Event_283: system.switch_cpus1 progress event, total committed:408057279, progress insts committed: 45106461, IPC: 04.50614
17925005580165: Event_282: system.switch_cpus0 progress event, total committed:408057201, progress insts committed: 45106317, IPC: 04.50612
Exiting @ tick 17928134962290 because a thread reached the max instruction count
