
---------- Begin Simulation Statistics ----------
final_tick                               17928134962290                       # Number of ticks from beginning of simulation (restored from checkpoints and never reset)
host_inst_rate                                 156366                       # Simulator instruction rate (inst/s)
host_mem_usage                               17114616                       # Number of bytes of host memory used
host_op_rate                                   281772                       # Simulator op (including micro ops) rate (op/s)
host_seconds                                  6394.88                       # Real time elapsed on the host
host_tick_rate                                5180612                       # Simulator tick rate (ticks/s)
sim_freq                                 1000000000000                       # Frequency of simulated ticks
sim_insts                                   999944289                       # Number of instructions simulated
sim_ops                                    1801897312                       # Number of ops (including micro ops) simulated
sim_seconds                                  0.033129                       # Number of seconds simulated
sim_ticks                                 33129382122                       # Number of ticks simulated
system.cpu0.Branches                                4                       # Number of branches fetched
system.cpu0.committedInsts                         13                       # Number of instructions committed
system.cpu0.committedOps                           29                       # Number of ops (including micro ops) committed
system.cpu0.idle_fraction                           0                       # Percentage of idle cycles
system.cpu0.l2bus.snoop_filter.hit_multi_requests        37904                       # Number of requests hitting in the snoop filter with multiple (>1) holders of the requested data.
system.cpu0.l2bus.snoop_filter.hit_multi_snoops            0                       # Number of snoops hitting in the snoop filter with multiple (>1) holders of the requested data.
system.cpu0.l2bus.snoop_filter.hit_single_requests      1721236                       # Number of requests hitting in the snoop filter with a single holder of the requested data.
system.cpu0.l2bus.snoop_filter.hit_single_snoops            1                       # Number of snoops hitting in the snoop filter with a single holder of the requested data.
system.cpu0.l2bus.snoop_filter.tot_requests      3443416                       # Total number of requests made to the snoop filter.
system.cpu0.l2bus.snoop_filter.tot_snoops            1                       # Total number of snoops made to the snoop filter.
system.cpu0.mmucache.mmubus.snoop_filter.hit_multi_requests            0                       # Number of requests hitting in the snoop filter with multiple (>1) holders of the requested data.
system.cpu0.mmucache.mmubus.snoop_filter.hit_multi_snoops            0                       # Number of snoops hitting in the snoop filter with multiple (>1) holders of the requested data.
system.cpu0.mmucache.mmubus.snoop_filter.hit_single_requests            0                       # Number of requests hitting in the snoop filter with a single holder of the requested data.
system.cpu0.mmucache.mmubus.snoop_filter.hit_single_snoops            0                       # Number of snoops hitting in the snoop filter with a single holder of the requested data.
system.cpu0.mmucache.mmubus.snoop_filter.tot_requests            0                       # Total number of requests made to the snoop filter.
system.cpu0.mmucache.mmubus.snoop_filter.tot_snoops            0                       # Total number of snoops made to the snoop filter.
system.cpu0.not_idle_fraction                       1                       # Percentage of non-idle cycles
system.cpu0.numCycles                              32                       # number of cpu cycles simulated
system.cpu0.numWorkItemsCompleted                   0                       # number of work items this cpu completed
system.cpu0.numWorkItemsStarted                     0                       # number of work items this cpu started
system.cpu0.num_busy_cycles                        32                       # Number of busy cycles
system.cpu0.num_cc_register_reads                  18                       # number of times the CC registers were read
system.cpu0.num_cc_register_writes                  8                       # number of times the CC registers were written
system.cpu0.num_conditional_control_insts            3                       # number of instructions that are conditional controls
system.cpu0.num_fp_alu_accesses                     0                       # Number of float alu accesses
system.cpu0.num_fp_insts                            0                       # number of float instructions
system.cpu0.num_fp_register_reads                   0                       # number of times the floating registers were read
system.cpu0.num_fp_register_writes                  0                       # number of times the floating registers were written
system.cpu0.num_func_calls                          1                       # number of times a function call or return occured
system.cpu0.num_idle_cycles                         0                       # Number of idle cycles
system.cpu0.num_int_alu_accesses                   29                       # Number of integer alu accesses
system.cpu0.num_int_insts                          29                       # number of integer instructions
system.cpu0.num_int_register_reads                 56                       # number of times the integer registers were read
system.cpu0.num_int_register_writes                25                       # number of times the integer registers were written
system.cpu0.num_load_insts                          6                       # Number of load instructions
system.cpu0.num_mem_refs                            6                       # number of memory refs
system.cpu0.num_store_insts                         0                       # Number of store instructions
system.cpu0.num_vec_alu_accesses                    0                       # Number of vector alu accesses
system.cpu0.num_vec_insts                           0                       # number of vector instructions
system.cpu0.num_vec_register_reads                  0                       # number of times the vector registers were read
system.cpu0.num_vec_register_writes                 0                       # number of times the vector registers were written
system.cpu0.op_class::No_OpClass                    0      0.00%      0.00% # Class of executed instruction
system.cpu0.op_class::IntAlu                       23     79.31%     79.31% # Class of executed instruction
system.cpu0.op_class::IntMult                       0      0.00%     79.31% # Class of executed instruction
system.cpu0.op_class::IntDiv                        0      0.00%     79.31% # Class of executed instruction
system.cpu0.op_class::FloatAdd                      0      0.00%     79.31% # Class of executed instruction
system.cpu0.op_class::FloatCmp                      0      0.00%     79.31% # Class of executed instruction
system.cpu0.op_class::FloatCvt                      0      0.00%     79.31% # Class of executed instruction
system.cpu0.op_class::FloatMult                     0      0.00%     79.31% # Class of executed instruction
system.cpu0.op_class::FloatMultAcc                  0      0.00%     79.31% # Class of executed instruction
system.cpu0.op_class::FloatDiv                      0      0.00%     79.31% # Class of executed instruction
system.cpu0.op_class::FloatMisc                     0      0.00%     79.31% # Class of executed instruction
system.cpu0.op_class::FloatSqrt                     0      0.00%     79.31% # Class of executed instruction
system.cpu0.op_class::SimdAdd                       0      0.00%     79.31% # Class of executed instruction
system.cpu0.op_class::SimdAddAcc                    0      0.00%     79.31% # Class of executed instruction
system.cpu0.op_class::SimdAlu                       0      0.00%     79.31% # Class of executed instruction
system.cpu0.op_class::SimdCmp                       0      0.00%     79.31% # Class of executed instruction
system.cpu0.op_class::SimdCvt                       0      0.00%     79.31% # Class of executed instruction
system.cpu0.op_class::SimdMisc                      0      0.00%     79.31% # Class of executed instruction
system.cpu0.op_class::SimdMult                      0      0.00%     79.31% # Class of executed instruction
system.cpu0.op_class::SimdMultAcc                   0      0.00%     79.31% # Class of executed instruction
system.cpu0.op_class::SimdShift                     0      0.00%     79.31% # Class of executed instruction
system.cpu0.op_class::SimdShiftAcc                  0      0.00%     79.31% # Class of executed instruction
system.cpu0.op_class::SimdDiv                       0      0.00%     79.31% # Class of executed instruction
system.cpu0.op_class::SimdSqrt                      0      0.00%     79.31% # Class of executed instruction
system.cpu0.op_class::SimdFloatAdd                  0      0.00%     79.31% # Class of executed instruction
system.cpu0.op_class::SimdFloatAlu                  0      0.00%     79.31% # Class of executed instruction
system.cpu0.op_class::SimdFloatCmp                  0      0.00%     79.31% # Class of executed instruction
system.cpu0.op_class::SimdFloatCvt                  0      0.00%     79.31% # Class of executed instruction
system.cpu0.op_class::SimdFloatDiv                  0      0.00%     79.31% # Class of executed instruction
system.cpu0.op_class::SimdFloatMisc                 0      0.00%     79.31% # Class of executed instruction
system.cpu0.op_class::SimdFloatMult                 0      0.00%     79.31% # Class of executed instruction
system.cpu0.op_class::SimdFloatMultAcc              0      0.00%     79.31% # Class of executed instruction
system.cpu0.op_class::SimdFloatSqrt                 0      0.00%     79.31% # Class of executed instruction
system.cpu0.op_class::SimdReduceAdd                 0      0.00%     79.31% # Class of executed instruction
system.cpu0.op_class::SimdReduceAlu                 0      0.00%     79.31% # Class of executed instruction
system.cpu0.op_class::SimdReduceCmp                 0      0.00%     79.31% # Class of executed instruction
system.cpu0.op_class::SimdFloatReduceAdd            0      0.00%     79.31% # Class of executed instruction
system.cpu0.op_class::SimdFloatReduceCmp            0      0.00%     79.31% # Class of executed instruction
system.cpu0.op_class::SimdAes                       0      0.00%     79.31% # Class of executed instruction
system.cpu0.op_class::SimdAesMix                    0      0.00%     79.31% # Class of executed instruction
system.cpu0.op_class::SimdSha1Hash                  0      0.00%     79.31% # Class of executed instruction
system.cpu0.op_class::SimdSha1Hash2                 0      0.00%     79.31% # Class of executed instruction
system.cpu0.op_class::SimdSha256Hash                0      0.00%     79.31% # Class of executed instruction
system.cpu0.op_class::SimdSha256Hash2               0      0.00%     79.31% # Class of executed instruction
system.cpu0.op_class::SimdShaSigma2                 0      0.00%     79.31% # Class of executed instruction
system.cpu0.op_class::SimdShaSigma3                 0      0.00%     79.31% # Class of executed instruction
system.cpu0.op_class::SimdPredAlu                   0      0.00%     79.31% # Class of executed instruction
system.cpu0.op_class::MemRead                       6     20.69%    100.00% # Class of executed instruction
system.cpu0.op_class::MemWrite                      0      0.00%    100.00% # Class of executed instruction
system.cpu0.op_class::FloatMemRead                  0      0.00%    100.00% # Class of executed instruction
system.cpu0.op_class::FloatMemWrite                 0      0.00%    100.00% # Class of executed instruction
system.cpu0.op_class::IprAccess                     0      0.00%    100.00% # Class of executed instruction
system.cpu0.op_class::InstPrefetch                  0      0.00%    100.00% # Class of executed instruction
system.cpu0.op_class::total                        29                       # Class of executed instruction
system.cpu0.workload.numSyscalls                    0                       # Number of system calls
system.cpu1.Branches                                4                       # Number of branches fetched
system.cpu1.committedInsts                         13                       # Number of instructions committed
system.cpu1.committedOps                           29                       # Number of ops (including micro ops) committed
system.cpu1.idle_fraction                           0                       # Percentage of idle cycles
system.cpu1.l2bus.snoop_filter.hit_multi_requests        37905                       # Number of requests hitting in the snoop filter with multiple (>1) holders of the requested data.
system.cpu1.l2bus.snoop_filter.hit_multi_snoops            0                       # Number of snoops hitting in the snoop filter with multiple (>1) holders of the requested data.
system.cpu1.l2bus.snoop_filter.hit_single_requests      1721244                       # Number of requests hitting in the snoop filter with a single holder of the requested data.
system.cpu1.l2bus.snoop_filter.hit_single_snoops            1                       # Number of snoops hitting in the snoop filter with a single holder of the requested data.
system.cpu1.l2bus.snoop_filter.tot_requests      3443434                       # Total number of requests made to the snoop filter.
system.cpu1.l2bus.snoop_filter.tot_snoops            1                       # Total number of snoops made to the snoop filter.
system.cpu1.mmucache.mmubus.snoop_filter.hit_multi_requests            0                       # Number of requests hitting in the snoop filter with multiple (>1) holders of the requested data.
system.cpu1.mmucache.mmubus.snoop_filter.hit_multi_snoops            0                       # Number of snoops hitting in the snoop filter with multiple (>1) holders of the requested data.
system.cpu1.mmucache.mmubus.snoop_filter.hit_single_requests            0                       # Number of requests hitting in the snoop filter with a single holder of the requested data.
system.cpu1.mmucache.mmubus.snoop_filter.hit_single_snoops            0                       # Number of snoops hitting in the snoop filter with a single holder of the requested data.
system.cpu1.mmucache.mmubus.snoop_filter.tot_requests            0                       # Total number of requests made to the snoop filter.
system.cpu1.mmucache.mmubus.snoop_filter.tot_snoops            0                       # Total number of snoops made to the snoop filter.
system.cpu1.not_idle_fraction                       1                       # Percentage of non-idle cycles
system.cpu1.numCycles                              32                       # number of cpu cycles simulated
system.cpu1.numWorkItemsCompleted                   0                       # number of work items this cpu completed
system.cpu1.numWorkItemsStarted                     0                       # number of work items this cpu started
system.cpu1.num_busy_cycles                        32                       # Number of busy cycles
system.cpu1.num_cc_register_reads                  18                       # number of times the CC registers were read
system.cpu1.num_cc_register_writes                  8                       # number of times the CC registers were written
system.cpu1.num_conditional_control_insts            3                       # number of instructions that are conditional controls
system.cpu1.num_fp_alu_accesses                     0                       # Number of float alu accesses
system.cpu1.num_fp_insts                            0                       # number of float instructions
system.cpu1.num_fp_register_reads                   0                       # number of times the floating registers were read
system.cpu1.num_fp_register_writes                  0                       # number of times the floating registers were written
system.cpu1.num_func_calls                          1                       # number of times a function call or return occured
system.cpu1.num_idle_cycles                         0                       # Number of idle cycles
system.cpu1.num_int_alu_accesses                   29                       # Number of integer alu accesses
system.cpu1.num_int_insts                          29                       # number of integer instructions
system.cpu1.num_int_register_reads                 56                       # number of times the integer registers were read
system.cpu1.num_int_register_writes                25                       # number of times the integer registers were written
system.cpu1.num_load_insts                          6                       # Number of load instructions
system.cpu1.num_mem_refs                            6                       # number of memory refs
system.cpu1.num_store_insts                         0                       # Number of store instructions
system.cpu1.num_vec_alu_accesses                    0                       # Number of vector alu accesses
system.cpu1.num_vec_insts                           0                       # number of vector instructions
system.cpu1.num_vec_register_reads                  0                       # number of times the vector registers were read
system.cpu1.num_vec_register_writes                 0                       # number of times the vector registers were written
system.cpu1.op_class::No_OpClass                    0      0.00%      0.00% # Class of executed instruction
system.cpu1.op_class::IntAlu                       23     79.31%     79.31% # Class of executed instruction
system.cpu1.op_class::IntMult                       0      0.00%     79.31% # Class of executed instruction
system.cpu1.op_class::IntDiv                        0      0.00%     79.31% # Class of executed instruction
system.cpu1.op_class::FloatAdd                      0      0.00%     79.31% # Class of executed instruction
system.cpu1.op_class::FloatCmp                      0      0.00%     79.31% # Class of executed instruction
system.cpu1.op_class::FloatCvt                      0      0.00%     79.31% # Class of executed instruction
system.cpu1.op_class::FloatMult                     0      0.00%     79.31% # Class of executed instruction
system.cpu1.op_class::FloatMultAcc                  0      0.00%     79.31% # Class of executed instruction
system.cpu1.op_class::FloatDiv                      0      0.00%     79.31% # Class of executed instruction
system.cpu1.op_class::FloatMisc                     0      0.00%     79.31% # Class of executed instruction
system.cpu1.op_class::FloatSqrt                     0      0.00%     79.31% # Class of executed instruction
system.cpu1.op_class::SimdAdd                       0      0.00%     79.31% # Class of executed instruction
system.cpu1.op_class::SimdAddAcc                    0      0.00%     79.31% # Class of executed instruction
system.cpu1.op_class::SimdAlu                       0      0.00%     79.31% # Class of executed instruction
system.cpu1.op_class::SimdCmp                       0      0.00%     79.31% # Class of executed instruction
system.cpu1.op_class::SimdCvt                       0      0.00%     79.31% # Class of executed instruction
system.cpu1.op_class::SimdMisc                      0      0.00%     79.31% # Class of executed instruction
system.cpu1.op_class::SimdMult                      0      0.00%     79.31% # Class of executed instruction
system.cpu1.op_class::SimdMultAcc                   0      0.00%     79.31% # Class of executed instruction
system.cpu1.op_class::SimdShift                     0      0.00%     79.31% # Class of executed instruction
system.cpu1.op_class::SimdShiftAcc                  0      0.00%     79.31% # Class of executed instruction
system.cpu1.op_class::SimdDiv                       0      0.00%     79.31% # Class of executed instruction
system.cpu1.op_class::SimdSqrt                      0      0.00%     79.31% # Class of executed instruction
system.cpu1.op_class::SimdFloatAdd                  0      0.00%     79.31% # Class of executed instruction
system.cpu1.op_class::SimdFloatAlu                  0      0.00%     79.31% # Class of executed instruction
system.cpu1.op_class::SimdFloatCmp                  0      0.00%     79.31% # Class of executed instruction
system.cpu1.op_class::SimdFloatCvt                  0      0.00%     79.31% # Class of executed instruction
system.cpu1.op_class::SimdFloatDiv                  0      0.00%     79.31% # Class of executed instruction
system.cpu1.op_class::SimdFloatMisc                 0      0.00%     79.31% # Class of executed instruction
system.cpu1.op_class::SimdFloatMult                 0      0.00%     79.31% # Class of executed instruction
system.cpu1.op_class::SimdFloatMultAcc              0      0.00%     79.31% # Class of executed instruction
system.cpu1.op_class::SimdFloatSqrt                 0      0.00%     79.31% # Class of executed instruction
system.cpu1.op_class::SimdReduceAdd                 0      0.00%     79.31% # Class of executed instruction
system.cpu1.op_class::SimdReduceAlu                 0      0.00%     79.31% # Class of executed instruction
system.cpu1.op_class::SimdReduceCmp                 0      0.00%     79.31% # Class of executed instruction
system.cpu1.op_class::SimdFloatReduceAdd            0      0.00%     79.31% # Class of executed instruction
system.cpu1.op_class::SimdFloatReduceCmp            0      0.00%     79.31% # Class of executed instruction
system.cpu1.op_class::SimdAes                       0      0.00%     79.31% # Class of executed instruction
system.cpu1.op_class::SimdAesMix                    0      0.00%     79.31% # Class of executed instruction
system.cpu1.op_class::SimdSha1Hash                  0      0.00%     79.31% # Class of executed instruction
system.cpu1.op_class::SimdSha1Hash2                 0      0.00%     79.31% # Class of executed instruction
system.cpu1.op_class::SimdSha256Hash                0      0.00%     79.31% # Class of executed instruction
system.cpu1.op_class::SimdSha256Hash2               0      0.00%     79.31% # Class of executed instruction
system.cpu1.op_class::SimdShaSigma2                 0      0.00%     79.31% # Class of executed instruction
system.cpu1.op_class::SimdShaSigma3                 0      0.00%     79.31% # Class of executed instruction
system.cpu1.op_class::SimdPredAlu                   0      0.00%     79.31% # Class of executed instruction
system.cpu1.op_class::MemRead                       6     20.69%    100.00% # Class of executed instruction
system.cpu1.op_class::MemWrite                      0      0.00%    100.00% # Class of executed instruction
system.cpu1.op_class::FloatMemRead                  0      0.00%    100.00% # Class of executed instruction
system.cpu1.op_class::FloatMemWrite                 0      0.00%    100.00% # Class of executed instruction
system.cpu1.op_class::IprAccess                     0      0.00%    100.00% # Class of executed instruction
system.cpu1.op_class::InstPrefetch                  0      0.00%    100.00% # Class of executed instruction
system.cpu1.op_class::total                        29                       # Class of executed instruction
system.cpu1.workload.numSyscalls                    0                       # Number of system calls
system.cpu2.Branches                                4                       # Number of branches fetched
system.cpu2.committedInsts                         13                       # Number of instructions committed
system.cpu2.committedOps                           29                       # Number of ops (including micro ops) committed
system.cpu2.idle_fraction                           0                       # Percentage of idle cycles
system.cpu2.l2bus.snoop_filter.hit_multi_requests        37905                       # Number of requests hitting in the snoop filter with multiple (>1) holders of the requested data.
system.cpu2.l2bus.snoop_filter.hit_multi_snoops            0                       # Number of snoops hitting in the snoop filter with multiple (>1) holders of the requested data.
system.cpu2.l2bus.snoop_filter.hit_single_requests      1721440                       # Number of requests hitting in the snoop filter with a single holder of the requested data.
system.cpu2.l2bus.snoop_filter.hit_single_snoops            1                       # Number of snoops hitting in the snoop filter with a single holder of the requested data.
system.cpu2.l2bus.snoop_filter.tot_requests      3443823                       # Total number of requests made to the snoop filter.
system.cpu2.l2bus.snoop_filter.tot_snoops            1                       # Total number of snoops made to the snoop filter.
system.cpu2.mmucache.mmubus.snoop_filter.hit_multi_requests            0                       # Number of requests hitting in the snoop filter with multiple (>1) holders of the requested data.
system.cpu2.mmucache.mmubus.snoop_filter.hit_multi_snoops            0                       # Number of snoops hitting in the snoop filter with multiple (>1) holders of the requested data.
system.cpu2.mmucache.mmubus.snoop_filter.hit_single_requests            0                       # Number of requests hitting in the snoop filter with a single holder of the requested data.
system.cpu2.mmucache.mmubus.snoop_filter.hit_single_snoops            0                       # Number of snoops hitting in the snoop filter with a single holder of the requested data.
system.cpu2.mmucache.mmubus.snoop_filter.tot_requests            0                       # Total number of requests made to the snoop filter.
system.cpu2.mmucache.mmubus.snoop_filter.tot_snoops            0                       # Total number of snoops made to the snoop filter.
system.cpu2.not_idle_fraction                       1                       # Percentage of non-idle cycles
system.cpu2.numCycles                              32                       # number of cpu cycles simulated
system.cpu2.numWorkItemsCompleted                   0                       # number of work items this cpu completed
system.cpu2.numWorkItemsStarted                     0                       # number of work items this cpu started
system.cpu2.num_busy_cycles                        32                       # Number of busy cycles
system.cpu2.num_cc_register_reads                  18                       # number of times the CC registers were read
system.cpu2.num_cc_register_writes                  8                       # number of times the CC registers were written
system.cpu2.num_conditional_control_insts            3                       # number of instructions that are conditional controls
system.cpu2.num_fp_alu_accesses                     0                       # Number of float alu accesses
system.cpu2.num_fp_insts                            0                       # number of float instructions
system.cpu2.num_fp_register_reads                   0                       # number of times the floating registers were read
system.cpu2.num_fp_register_writes                  0                       # number of times the floating registers were written
system.cpu2.num_func_calls                          1                       # number of times a function call or return occured
system.cpu2.num_idle_cycles                         0                       # Number of idle cycles
system.cpu2.num_int_alu_accesses                   29                       # Number of integer alu accesses
system.cpu2.num_int_insts                          29                       # number of integer instructions
system.cpu2.num_int_register_reads                 56                       # number of times the integer registers were read
system.cpu2.num_int_register_writes                25                       # number of times the integer registers were written
system.cpu2.num_load_insts                          6                       # Number of load instructions
system.cpu2.num_mem_refs                            6                       # number of memory refs
system.cpu2.num_store_insts                         0                       # Number of store instructions
system.cpu2.num_vec_alu_accesses                    0                       # Number of vector alu accesses
system.cpu2.num_vec_insts                           0                       # number of vector instructions
system.cpu2.num_vec_register_reads                  0                       # number of times the vector registers were read
system.cpu2.num_vec_register_writes                 0                       # number of times the vector registers were written
system.cpu2.op_class::No_OpClass                    0      0.00%      0.00% # Class of executed instruction
system.cpu2.op_class::IntAlu                       23     79.31%     79.31% # Class of executed instruction
system.cpu2.op_class::IntMult                       0      0.00%     79.31% # Class of executed instruction
system.cpu2.op_class::IntDiv                        0      0.00%     79.31% # Class of executed instruction
system.cpu2.op_class::FloatAdd                      0      0.00%     79.31% # Class of executed instruction
system.cpu2.op_class::FloatCmp                      0      0.00%     79.31% # Class of executed instruction
system.cpu2.op_class::FloatCvt                      0      0.00%     79.31% # Class of executed instruction
system.cpu2.op_class::FloatMult                     0      0.00%     79.31% # Class of executed instruction
system.cpu2.op_class::FloatMultAcc                  0      0.00%     79.31% # Class of executed instruction
system.cpu2.op_class::FloatDiv                      0      0.00%     79.31% # Class of executed instruction
system.cpu2.op_class::FloatMisc                     0      0.00%     79.31% # Class of executed instruction
system.cpu2.op_class::FloatSqrt                     0      0.00%     79.31% # Class of executed instruction
system.cpu2.op_class::SimdAdd                       0      0.00%     79.31% # Class of executed instruction
system.cpu2.op_class::SimdAddAcc                    0      0.00%     79.31% # Class of executed instruction
system.cpu2.op_class::SimdAlu                       0      0.00%     79.31% # Class of executed instruction
system.cpu2.op_class::SimdCmp                       0      0.00%     79.31% # Class of executed instruction
system.cpu2.op_class::SimdCvt                       0      0.00%     79.31% # Class of executed instruction
system.cpu2.op_class::SimdMisc                      0      0.00%     79.31% # Class of executed instruction
system.cpu2.op_class::SimdMult                      0      0.00%     79.31% # Class of executed instruction
system.cpu2.op_class::SimdMultAcc                   0      0.00%     79.31% # Class of executed instruction
system.cpu2.op_class::SimdShift                     0      0.00%     79.31% # Class of executed instruction
system.cpu2.op_class::SimdShiftAcc                  0      0.00%     79.31% # Class of executed instruction
system.cpu2.op_class::SimdDiv                       0      0.00%     79.31% # Class of executed instruction
system.cpu2.op_class::SimdSqrt                      0      0.00%     79.31% # Class of executed instruction
system.cpu2.op_class::SimdFloatAdd                  0      0.00%     79.31% # Class of executed instruction
system.cpu2.op_class::SimdFloatAlu                  0      0.00%     79.31% # Class of executed instruction
system.cpu2.op_class::SimdFloatCmp                  0      0.00%     79.31% # Class of executed instruction
system.cpu2.op_class::SimdFloatCvt                  0      0.00%     79.31% # Class of executed instruction
system.cpu2.op_class::SimdFloatDiv                  0      0.00%     79.31% # Class of executed instruction
system.cpu2.op_class::SimdFloatMisc                 0      0.00%     79.31% # Class of executed instruction
system.cpu2.op_class::SimdFloatMult                 0      0.00%     79.31% # Class of executed instruction
system.cpu2.op_class::SimdFloatMultAcc              0      0.00%     79.31% # Class of executed instruction
system.cpu2.op_class::SimdFloatSqrt                 0      0.00%     79.31% # Class of executed instruction
system.cpu2.op_class::SimdReduceAdd                 0      0.00%     79.31% # Class of executed instruction
system.cpu2.op_class::SimdReduceAlu                 0      0.00%     79.31% # Class of executed instruction
system.cpu2.op_class::SimdReduceCmp                 0      0.00%     79.31% # Class of executed instruction
system.cpu2.op_class::SimdFloatReduceAdd            0      0.00%     79.31% # Class of executed instruction
system.cpu2.op_class::SimdFloatReduceCmp            0      0.00%     79.31% # Class of executed instruction
system.cpu2.op_class::SimdAes                       0      0.00%     79.31% # Class of executed instruction
system.cpu2.op_class::SimdAesMix                    0      0.00%     79.31% # Class of executed instruction
system.cpu2.op_class::SimdSha1Hash                  0      0.00%     79.31% # Class of executed instruction
system.cpu2.op_class::SimdSha1Hash2                 0      0.00%     79.31% # Class of executed instruction
system.cpu2.op_class::SimdSha256Hash                0      0.00%     79.31% # Class of executed instruction
system.cpu2.op_class::SimdSha256Hash2               0      0.00%     79.31% # Class of executed instruction
system.cpu2.op_class::SimdShaSigma2                 0      0.00%     79.31% # Class of executed instruction
system.cpu2.op_class::SimdShaSigma3                 0      0.00%     79.31% # Class of executed instruction
system.cpu2.op_class::SimdPredAlu                   0      0.00%     79.31% # Class of executed instruction
system.cpu2.op_class::MemRead                       6     20.69%    100.00% # Class of executed instruction
system.cpu2.op_class::MemWrite                      0      0.00%    100.00% # Class of executed instruction
system.cpu2.op_class::FloatMemRead                  0      0.00%    100.00% # Class of executed instruction
system.cpu2.op_class::FloatMemWrite                 0      0.00%    100.00% # Class of executed instruction
system.cpu2.op_class::IprAccess                     0      0.00%    100.00% # Class of executed instruction
system.cpu2.op_class::InstPrefetch                  0      0.00%    100.00% # Class of executed instruction
system.cpu2.op_class::total                        29                       # Class of executed instruction
system.cpu2.workload.numSyscalls                    0                       # Number of system calls
system.cpu3.Branches                                4                       # Number of branches fetched
system.cpu3.committedInsts                         13                       # Number of instructions committed
system.cpu3.committedOps                           29                       # Number of ops (including micro ops) committed
system.cpu3.idle_fraction                           0                       # Percentage of idle cycles
system.cpu3.l2bus.snoop_filter.hit_multi_requests        37909                       # Number of requests hitting in the snoop filter with multiple (>1) holders of the requested data.
system.cpu3.l2bus.snoop_filter.hit_multi_snoops            0                       # Number of snoops hitting in the snoop filter with multiple (>1) holders of the requested data.
system.cpu3.l2bus.snoop_filter.hit_single_requests      1721455                       # Number of requests hitting in the snoop filter with a single holder of the requested data.
system.cpu3.l2bus.snoop_filter.hit_single_snoops            1                       # Number of snoops hitting in the snoop filter with a single holder of the requested data.
system.cpu3.l2bus.snoop_filter.tot_requests      3443855                       # Total number of requests made to the snoop filter.
system.cpu3.l2bus.snoop_filter.tot_snoops            1                       # Total number of snoops made to the snoop filter.
system.cpu3.mmucache.mmubus.snoop_filter.hit_multi_requests            0                       # Number of requests hitting in the snoop filter with multiple (>1) holders of the requested data.
system.cpu3.mmucache.mmubus.snoop_filter.hit_multi_snoops            0                       # Number of snoops hitting in the snoop filter with multiple (>1) holders of the requested data.
system.cpu3.mmucache.mmubus.snoop_filter.hit_single_requests            0                       # Number of requests hitting in the snoop filter with a single holder of the requested data.
system.cpu3.mmucache.mmubus.snoop_filter.hit_single_snoops            0                       # Number of snoops hitting in the snoop filter with a single holder of the requested data.
system.cpu3.mmucache.mmubus.snoop_filter.tot_requests            0                       # Total number of requests made to the snoop filter.
system.cpu3.mmucache.mmubus.snoop_filter.tot_snoops            0                       # Total number of snoops made to the snoop filter.
system.cpu3.not_idle_fraction                       1                       # Percentage of non-idle cycles
system.cpu3.numCycles                              32                       # number of cpu cycles simulated
system.cpu3.numWorkItemsCompleted                   0                       # number of work items this cpu completed
system.cpu3.numWorkItemsStarted                     0                       # number of work items this cpu started
system.cpu3.num_busy_cycles                        32                       # Number of busy cycles
system.cpu3.num_cc_register_reads                  18                       # number of times the CC registers were read
system.cpu3.num_cc_register_writes                  8                       # number of times the CC registers were written
system.cpu3.num_conditional_control_insts            3                       # number of instructions that are conditional controls
system.cpu3.num_fp_alu_accesses                     0                       # Number of float alu accesses
system.cpu3.num_fp_insts                            0                       # number of float instructions
system.cpu3.num_fp_register_reads                   0                       # number of times the floating registers were read
system.cpu3.num_fp_register_writes                  0                       # number of times the floating registers were written
system.cpu3.num_func_calls                          1                       # number of times a function call or return occured
system.cpu3.num_idle_cycles                         0                       # Number of idle cycles
system.cpu3.num_int_alu_accesses                   29                       # Number of integer alu accesses
system.cpu3.num_int_insts                          29                       # number of integer instructions
system.cpu3.num_int_register_reads                 56                       # number of times the integer registers were read
system.cpu3.num_int_register_writes                25                       # number of times the integer registers were written
system.cpu3.num_load_insts                          6                       # Number of load instructions
system.cpu3.num_mem_refs                            6                       # number of memory refs
system.cpu3.num_store_insts                         0                       # Number of store instructions
system.cpu3.num_vec_alu_accesses                    0                       # Number of vector alu accesses
system.cpu3.num_vec_insts                           0                       # number of vector instructions
system.cpu3.num_vec_register_reads                  0                       # number of times the vector registers were read
system.cpu3.num_vec_register_writes                 0                       # number of times the vector registers were written
system.cpu3.op_class::No_OpClass                    0      0.00%      0.00% # Class of executed instruction
system.cpu3.op_class::IntAlu                       23     79.31%     79.31% # Class of executed instruction
system.cpu3.op_class::IntMult                       0      0.00%     79.31% # Class of executed instruction
system.cpu3.op_class::IntDiv                        0      0.00%     79.31% # Class of executed instruction
system.cpu3.op_class::FloatAdd                      0      0.00%     79.31% # Class of executed instruction
system.cpu3.op_class::FloatCmp                      0      0.00%     79.31% # Class of executed instruction
system.cpu3.op_class::FloatCvt                      0      0.00%     79.31% # Class of executed instruction
system.cpu3.op_class::FloatMult                     0      0.00%     79.31% # Class of executed instruction
system.cpu3.op_class::FloatMultAcc                  0      0.00%     79.31% # Class of executed instruction
system.cpu3.op_class::FloatDiv                      0      0.00%     79.31% # Class of executed instruction
system.cpu3.op_class::FloatMisc                     0      0.00%     79.31% # Class of executed instruction
system.cpu3.op_class::FloatSqrt                     0      0.00%     79.31% # Class of executed instruction
system.cpu3.op_class::SimdAdd                       0      0.00%     79.31% # Class of executed instruction
system.cpu3.op_class::SimdAddAcc                    0      0.00%     79.31% # Class of executed instruction
system.cpu3.op_class::SimdAlu                       0      0.00%     79.31% # Class of executed instruction
system.cpu3.op_class::SimdCmp                       0      0.00%     79.31% # Class of executed instruction
system.cpu3.op_class::SimdCvt                       0      0.00%     79.31% # Class of executed instruction
system.cpu3.op_class::SimdMisc                      0      0.00%     79.31% # Class of executed instruction
system.cpu3.op_class::SimdMult                      0      0.00%     79.31% # Class of executed instruction
system.cpu3.op_class::SimdMultAcc                   0      0.00%     79.31% # Class of executed instruction
system.cpu3.op_class::SimdShift                     0      0.00%     79.31% # Class of executed instruction
system.cpu3.op_class::SimdShiftAcc                  0      0.00%     79.31% # Class of executed instruction
system.cpu3.op_class::SimdDiv                       0      0.00%     79.31% # Class of executed instruction
system.cpu3.op_class::SimdSqrt                      0      0.00%     79.31% # Class of executed instruction
system.cpu3.op_class::SimdFloatAdd                  0      0.00%     79.31% # Class of executed instruction
system.cpu3.op_class::SimdFloatAlu                  0      0.00%     79.31% # Class of executed instruction
system.cpu3.op_class::SimdFloatCmp                  0      0.00%     79.31% # Class of executed instruction
system.cpu3.op_class::SimdFloatCvt                  0      0.00%     79.31% # Class of executed instruction
system.cpu3.op_class::SimdFloatDiv                  0      0.00%     79.31% # Class of executed instruction
system.cpu3.op_class::SimdFloatMisc                 0      0.00%     79.31% # Class of executed instruction
system.cpu3.op_class::SimdFloatMult                 0      0.00%     79.31% # Class of executed instruction
system.cpu3.op_class::SimdFloatMultAcc              0      0.00%     79.31% # Class of executed instruction
system.cpu3.op_class::SimdFloatSqrt                 0      0.00%     79.31% # Class of executed instruction
system.cpu3.op_class::SimdReduceAdd                 0      0.00%     79.31% # Class of executed instruction
system.cpu3.op_class::SimdReduceAlu                 0      0.00%     79.31% # Class of executed instruction
system.cpu3.op_class::SimdReduceCmp                 0      0.00%     79.31% # Class of executed instruction
system.cpu3.op_class::SimdFloatReduceAdd            0      0.00%     79.31% # Class of executed instruction
system.cpu3.op_class::SimdFloatReduceCmp            0      0.00%     79.31% # Class of executed instruction
system.cpu3.op_class::SimdAes                       0      0.00%     79.31% # Class of executed instruction
system.cpu3.op_class::SimdAesMix                    0      0.00%     79.31% # Class of executed instruction
system.cpu3.op_class::SimdSha1Hash                  0      0.00%     79.31% # Class of executed instruction
system.cpu3.op_class::SimdSha1Hash2                 0      0.00%     79.31% # Class of executed instruction
system.cpu3.op_class::SimdSha256Hash                0      0.00%     79.31% # Class of executed instruction
system.cpu3.op_class::SimdSha256Hash2               0      0.00%     79.31% # Class of executed instruction
system.cpu3.op_class::SimdShaSigma2                 0      0.00%     79.31% # Class of executed instruction
system.cpu3.op_class::SimdShaSigma3                 0      0.00%     79.31% # Class of executed instruction
system.cpu3.op_class::SimdPredAlu                   0      0.00%     79.31% # Class of executed instruction
system.cpu3.op_class::MemRead                       6     20.69%    100.00% # Class of executed instruction
system.cpu3.op_class::MemWrite                      0      0.00%    100.00% # Class of executed instruction
system.cpu3.op_class::FloatMemRead                  0      0.00%    100.00% # Class of executed instruction
system.cpu3.op_class::FloatMemWrite                 0      0.00%    100.00% # Class of executed instruction
system.cpu3.op_class::IprAccess                     0      0.00%    100.00% # Class of executed instruction
system.cpu3.op_class::InstPrefetch                  0      0.00%    100.00% # Class of executed instruction
system.cpu3.op_class::total                        29                       # Class of executed instruction
system.cpu3.workload.numSyscalls                    0                       # Number of system calls
system.l3bus.snoop_filter.hit_multi_requests            0                       # Number of requests hitting in the snoop filter with multiple (>1) holders of the requested data.
system.l3bus.snoop_filter.hit_multi_snoops            0                       # Number of snoops hitting in the snoop filter with multiple (>1) holders of the requested data.
system.l3bus.snoop_filter.hit_single_requests            0                       # Number of requests hitting in the snoop filter with a single holder of the requested data.
system.l3bus.snoop_filter.hit_single_snoops            0                       # Number of snoops hitting in the snoop filter with a single holder of the requested data.
system.l3bus.snoop_filter.tot_requests           5499                       # Total number of requests made to the snoop filter.
system.l3bus.snoop_filter.tot_snoops                0                       # Total number of snoops made to the snoop filter.
system.membus.snoop_filter.hit_multi_requests            0                       # Number of requests hitting in the snoop filter with multiple (>1) holders of the requested data.
system.membus.snoop_filter.hit_multi_snoops            0                       # Number of snoops hitting in the snoop filter with multiple (>1) holders of the requested data.
system.membus.snoop_filter.hit_single_requests            0                       # Number of requests hitting in the snoop filter with a single holder of the requested data.
system.membus.snoop_filter.hit_single_snoops            0                       # Number of snoops hitting in the snoop filter with a single holder of the requested data.
system.membus.snoop_filter.tot_requests          5499                       # Total number of requests made to the snoop filter.
system.membus.snoop_filter.tot_snoops               0                       # Total number of snoops made to the snoop filter.
system.switch_cpus0.cc_regfile_reads        204523622                       # number of cc regfile reads
system.switch_cpus0.cc_regfile_writes       100501211                       # number of cc regfile writes
system.switch_cpus0.committedInsts          249973769                       # Number of Instructions Simulated
system.switch_cpus0.committedOps            450452070                       # Number of Ops (including micro ops) Simulated
system.switch_cpus0.cpi                      0.397992                       # CPI: Cycles Per Instruction
system.switch_cpus0.cpi_total                0.397992                       # CPI: Total CPI of All Threads
system.switch_cpus0.fp_regfile_reads        146651813                       # number of floating regfile reads
system.switch_cpus0.fp_regfile_writes        84007095                       # number of floating regfile writes
system.switch_cpus0.idleCycles                  77828                       # Total number of cycles that the CPU has spent unscheduled due to idling
system.switch_cpus0.iew.branchMispredicts      1092548                       # Number of branch mispredicts detected at execute
system.switch_cpus0.iew.exec_branches        46298127                       # Number of branches executed
system.switch_cpus0.iew.exec_nop                    0                       # number of nop insts executed
system.switch_cpus0.iew.exec_rate            4.821397                       # Inst execution rate
system.switch_cpus0.iew.exec_refs           140819165                       # number of memory reference insts executed
system.switch_cpus0.iew.exec_stores          42651737                       # Number of stores executed
system.switch_cpus0.iew.exec_swp                    0                       # number of swp insts executed
system.switch_cpus0.iew.iewBlockCycles        6049038                       # Number of cycles IEW is blocking
system.switch_cpus0.iew.iewDispLoadInsts    102968127                       # Number of dispatched load instructions
system.switch_cpus0.iew.iewDispNonSpecInsts            8                       # Number of dispatched non-speculative instructions
system.switch_cpus0.iew.iewDispSquashedInsts          260                       # Number of squashed instructions skipped by dispatch
system.switch_cpus0.iew.iewDispStoreInsts     45382129                       # Number of dispatched store instructions
system.switch_cpus0.iew.iewDispatchedInsts    502274624                       # Number of instructions dispatched to IQ
system.switch_cpus0.iew.iewExecLoadInsts     98167428                       # Number of load instructions executed
system.switch_cpus0.iew.iewExecSquashedInsts      3011610                       # Number of squashed instructions skipped in execute
system.switch_cpus0.iew.iewExecutedInsts    479669220                       # Number of executed instructions
system.switch_cpus0.iew.iewIQFullEvents         10039                       # Number of times the IQ has become full, causing a stall
system.switch_cpus0.iew.iewIdleCycles               0                       # Number of cycles IEW is idle
system.switch_cpus0.iew.iewLSQFullEvents       182018                       # Number of times the LSQ has become full, causing a stall
system.switch_cpus0.iew.iewSquashCycles        993195                       # Number of cycles IEW is squashing
system.switch_cpus0.iew.iewUnblockCycles       195738                       # Number of cycles IEW is unblocking
system.switch_cpus0.iew.memOrderViolationEvents        17446                       # Number of memory order violations
system.switch_cpus0.iew.predictedNotTakenIncorrect       731608                       # Number of branches that were predicted not taken incorrectly
system.switch_cpus0.iew.predictedTakenIncorrect       360940                       # Number of branches that were predicted taken incorrectly
system.switch_cpus0.iew.wb_consumers        627958731                       # num instructions consuming a value
system.switch_cpus0.iew.wb_count            477893913                       # cumulative count of insts written-back
system.switch_cpus0.iew.wb_fanout            0.567161                       # average fanout of values written-back
system.switch_cpus0.iew.wb_producers        356153813                       # num instructions producing a value
system.switch_cpus0.iew.wb_rate              4.803552                       # insts written-back per cycle
system.switch_cpus0.iew.wb_sent             479164898                       # cumulative count of insts sent to commit
system.switch_cpus0.int_regfile_reads       664408587                       # number of integer regfile reads
system.switch_cpus0.int_regfile_writes      299432113                       # number of integer regfile writes
system.switch_cpus0.ipc                      2.512612                       # IPC: Instructions Per Cycle
system.switch_cpus0.ipc_total                2.512612                       # IPC: Total IPC of All Threads
system.switch_cpus0.iq.FU_type_0::No_OpClass      2621861      0.54%      0.54% # Type of FU issued
system.switch_cpus0.iq.FU_type_0::IntAlu    289438905     59.96%     60.51% # Type of FU issued
system.switch_cpus0.iq.FU_type_0::IntMult       962183      0.20%     60.71% # Type of FU issued
system.switch_cpus0.iq.FU_type_0::IntDiv            0      0.00%     60.71% # Type of FU issued
system.switch_cpus0.iq.FU_type_0::FloatAdd      1082586      0.22%     60.93% # Type of FU issued
system.switch_cpus0.iq.FU_type_0::FloatCmp            0      0.00%     60.93% # Type of FU issued
system.switch_cpus0.iq.FU_type_0::FloatCvt            0      0.00%     60.93% # Type of FU issued
system.switch_cpus0.iq.FU_type_0::FloatMult            0      0.00%     60.93% # Type of FU issued
system.switch_cpus0.iq.FU_type_0::FloatMultAcc            0      0.00%     60.93% # Type of FU issued
system.switch_cpus0.iq.FU_type_0::FloatDiv            0      0.00%     60.93% # Type of FU issued
system.switch_cpus0.iq.FU_type_0::FloatMisc            0      0.00%     60.93% # Type of FU issued
system.switch_cpus0.iq.FU_type_0::FloatSqrt            0      0.00%     60.93% # Type of FU issued
system.switch_cpus0.iq.FU_type_0::SimdAdd            0      0.00%     60.93% # Type of FU issued
system.switch_cpus0.iq.FU_type_0::SimdAddAcc            0      0.00%     60.93% # Type of FU issued
system.switch_cpus0.iq.FU_type_0::SimdAlu      2982790      0.62%     61.55% # Type of FU issued
system.switch_cpus0.iq.FU_type_0::SimdCmp            0      0.00%     61.55% # Type of FU issued
system.switch_cpus0.iq.FU_type_0::SimdCvt            0      0.00%     61.55% # Type of FU issued
system.switch_cpus0.iq.FU_type_0::SimdMisc        80067      0.02%     61.57% # Type of FU issued
system.switch_cpus0.iq.FU_type_0::SimdMult            0      0.00%     61.57% # Type of FU issued
system.switch_cpus0.iq.FU_type_0::SimdMultAcc            0      0.00%     61.57% # Type of FU issued
system.switch_cpus0.iq.FU_type_0::SimdShift            0      0.00%     61.57% # Type of FU issued
system.switch_cpus0.iq.FU_type_0::SimdShiftAcc            0      0.00%     61.57% # Type of FU issued
system.switch_cpus0.iq.FU_type_0::SimdDiv            0      0.00%     61.57% # Type of FU issued
system.switch_cpus0.iq.FU_type_0::SimdSqrt            0      0.00%     61.57% # Type of FU issued
system.switch_cpus0.iq.FU_type_0::SimdFloatAdd     17491903      3.62%     65.19% # Type of FU issued
system.switch_cpus0.iq.FU_type_0::SimdFloatAlu            0      0.00%     65.19% # Type of FU issued
system.switch_cpus0.iq.FU_type_0::SimdFloatCmp        61416      0.01%     65.20% # Type of FU issued
system.switch_cpus0.iq.FU_type_0::SimdFloatCvt      7579447      1.57%     66.77% # Type of FU issued
system.switch_cpus0.iq.FU_type_0::SimdFloatDiv       605436      0.13%     66.90% # Type of FU issued
system.switch_cpus0.iq.FU_type_0::SimdFloatMisc            0      0.00%     66.90% # Type of FU issued
system.switch_cpus0.iq.FU_type_0::SimdFloatMult     17348276      3.59%     70.49% # Type of FU issued
system.switch_cpus0.iq.FU_type_0::SimdFloatMultAcc            0      0.00%     70.49% # Type of FU issued
system.switch_cpus0.iq.FU_type_0::SimdFloatSqrt        38390      0.01%     70.50% # Type of FU issued
system.switch_cpus0.iq.FU_type_0::SimdReduceAdd            0      0.00%     70.50% # Type of FU issued
system.switch_cpus0.iq.FU_type_0::SimdReduceAlu            0      0.00%     70.50% # Type of FU issued
system.switch_cpus0.iq.FU_type_0::SimdReduceCmp            0      0.00%     70.50% # Type of FU issued
system.switch_cpus0.iq.FU_type_0::SimdFloatReduceAdd            0      0.00%     70.50% # Type of FU issued
system.switch_cpus0.iq.FU_type_0::SimdFloatReduceCmp            0      0.00%     70.50% # Type of FU issued
system.switch_cpus0.iq.FU_type_0::SimdAes            0      0.00%     70.50% # Type of FU issued
system.switch_cpus0.iq.FU_type_0::SimdAesMix            0      0.00%     70.50% # Type of FU issued
system.switch_cpus0.iq.FU_type_0::SimdSha1Hash            0      0.00%     70.50% # Type of FU issued
system.switch_cpus0.iq.FU_type_0::SimdSha1Hash2            0      0.00%     70.50% # Type of FU issued
system.switch_cpus0.iq.FU_type_0::SimdSha256Hash            0      0.00%     70.50% # Type of FU issued
system.switch_cpus0.iq.FU_type_0::SimdSha256Hash2            0      0.00%     70.50% # Type of FU issued
system.switch_cpus0.iq.FU_type_0::SimdShaSigma2            0      0.00%     70.50% # Type of FU issued
system.switch_cpus0.iq.FU_type_0::SimdShaSigma3            0      0.00%     70.50% # Type of FU issued
system.switch_cpus0.iq.FU_type_0::SimdPredAlu            0      0.00%     70.50% # Type of FU issued
system.switch_cpus0.iq.FU_type_0::MemRead     61650987     12.77%     83.27% # Type of FU issued
system.switch_cpus0.iq.FU_type_0::MemWrite     36572694      7.58%     90.85% # Type of FU issued
system.switch_cpus0.iq.FU_type_0::FloatMemRead     37774520      7.83%     98.68% # Type of FU issued
system.switch_cpus0.iq.FU_type_0::FloatMemWrite      6389377      1.32%    100.00% # Type of FU issued
system.switch_cpus0.iq.FU_type_0::IprAccess            0      0.00%    100.00% # Type of FU issued
system.switch_cpus0.iq.FU_type_0::InstPrefetch            0      0.00%    100.00% # Type of FU issued
system.switch_cpus0.iq.FU_type_0::total     482680838                       # Type of FU issued
system.switch_cpus0.iq.fp_alu_accesses      102874400                       # Number of floating point alu accesses
system.switch_cpus0.iq.fp_inst_queue_reads    200738271                       # Number of floating instruction queue reads
system.switch_cpus0.iq.fp_inst_queue_wakeup_accesses     96426179                       # Number of floating instruction queue wakeup accesses
system.switch_cpus0.iq.fp_inst_queue_writes    108389159                       # Number of floating instruction queue writes
system.switch_cpus0.iq.fu_busy_cnt           13673763                       # FU busy when requested
system.switch_cpus0.iq.fu_busy_rate          0.028329                       # FU busy rate (busy events/executed inst)
system.switch_cpus0.iq.fu_full::No_OpClass            0      0.00%      0.00% # attempts to use FU when none available
system.switch_cpus0.iq.fu_full::IntAlu        4042096     29.56%     29.56% # attempts to use FU when none available
system.switch_cpus0.iq.fu_full::IntMult             0      0.00%     29.56% # attempts to use FU when none available
system.switch_cpus0.iq.fu_full::IntDiv              0      0.00%     29.56% # attempts to use FU when none available
system.switch_cpus0.iq.fu_full::FloatAdd         9891      0.07%     29.63% # attempts to use FU when none available
system.switch_cpus0.iq.fu_full::FloatCmp            0      0.00%     29.63% # attempts to use FU when none available
system.switch_cpus0.iq.fu_full::FloatCvt            0      0.00%     29.63% # attempts to use FU when none available
system.switch_cpus0.iq.fu_full::FloatMult            0      0.00%     29.63% # attempts to use FU when none available
system.switch_cpus0.iq.fu_full::FloatMultAcc            0      0.00%     29.63% # attempts to use FU when none available
system.switch_cpus0.iq.fu_full::FloatDiv            0      0.00%     29.63% # attempts to use FU when none available
system.switch_cpus0.iq.fu_full::FloatMisc            0      0.00%     29.63% # attempts to use FU when none available
system.switch_cpus0.iq.fu_full::FloatSqrt            0      0.00%     29.63% # attempts to use FU when none available
system.switch_cpus0.iq.fu_full::SimdAdd             0      0.00%     29.63% # attempts to use FU when none available
system.switch_cpus0.iq.fu_full::SimdAddAcc            0      0.00%     29.63% # attempts to use FU when none available
system.switch_cpus0.iq.fu_full::SimdAlu        217515      1.59%     31.22% # attempts to use FU when none available
system.switch_cpus0.iq.fu_full::SimdCmp             0      0.00%     31.22% # attempts to use FU when none available
system.switch_cpus0.iq.fu_full::SimdCvt             0      0.00%     31.22% # attempts to use FU when none available
system.switch_cpus0.iq.fu_full::SimdMisc            2      0.00%     31.22% # attempts to use FU when none available
system.switch_cpus0.iq.fu_full::SimdMult            0      0.00%     31.22% # attempts to use FU when none available
system.switch_cpus0.iq.fu_full::SimdMultAcc            0      0.00%     31.22% # attempts to use FU when none available
system.switch_cpus0.iq.fu_full::SimdShift            0      0.00%     31.22% # attempts to use FU when none available
system.switch_cpus0.iq.fu_full::SimdShiftAcc            0      0.00%     31.22% # attempts to use FU when none available
system.switch_cpus0.iq.fu_full::SimdDiv             0      0.00%     31.22% # attempts to use FU when none available
system.switch_cpus0.iq.fu_full::SimdSqrt            0      0.00%     31.22% # attempts to use FU when none available
system.switch_cpus0.iq.fu_full::SimdFloatAdd       506514      3.70%     34.93% # attempts to use FU when none available
system.switch_cpus0.iq.fu_full::SimdFloatAlu            0      0.00%     34.93% # attempts to use FU when none available
system.switch_cpus0.iq.fu_full::SimdFloatCmp            0      0.00%     34.93% # attempts to use FU when none available
system.switch_cpus0.iq.fu_full::SimdFloatCvt        54498      0.40%     35.33% # attempts to use FU when none available
system.switch_cpus0.iq.fu_full::SimdFloatDiv            0      0.00%     35.33% # attempts to use FU when none available
system.switch_cpus0.iq.fu_full::SimdFloatMisc            0      0.00%     35.33% # attempts to use FU when none available
system.switch_cpus0.iq.fu_full::SimdFloatMult       340580      2.49%     37.82% # attempts to use FU when none available
system.switch_cpus0.iq.fu_full::SimdFloatMultAcc            0      0.00%     37.82% # attempts to use FU when none available
system.switch_cpus0.iq.fu_full::SimdFloatSqrt            0      0.00%     37.82% # attempts to use FU when none available
system.switch_cpus0.iq.fu_full::SimdReduceAdd            0      0.00%     37.82% # attempts to use FU when none available
system.switch_cpus0.iq.fu_full::SimdReduceAlu            0      0.00%     37.82% # attempts to use FU when none available
system.switch_cpus0.iq.fu_full::SimdReduceCmp            0      0.00%     37.82% # attempts to use FU when none available
system.switch_cpus0.iq.fu_full::SimdFloatReduceAdd            0      0.00%     37.82% # attempts to use FU when none available
system.switch_cpus0.iq.fu_full::SimdFloatReduceCmp            0      0.00%     37.82% # attempts to use FU when none available
system.switch_cpus0.iq.fu_full::SimdAes             0      0.00%     37.82% # attempts to use FU when none available
system.switch_cpus0.iq.fu_full::SimdAesMix            0      0.00%     37.82% # attempts to use FU when none available
system.switch_cpus0.iq.fu_full::SimdSha1Hash            0      0.00%     37.82% # attempts to use FU when none available
system.switch_cpus0.iq.fu_full::SimdSha1Hash2            0      0.00%     37.82% # attempts to use FU when none available
system.switch_cpus0.iq.fu_full::SimdSha256Hash            0      0.00%     37.82% # attempts to use FU when none available
system.switch_cpus0.iq.fu_full::SimdSha256Hash2            0      0.00%     37.82% # attempts to use FU when none available
system.switch_cpus0.iq.fu_full::SimdShaSigma2            0      0.00%     37.82% # attempts to use FU when none available
system.switch_cpus0.iq.fu_full::SimdShaSigma3            0      0.00%     37.82% # attempts to use FU when none available
system.switch_cpus0.iq.fu_full::SimdPredAlu            0      0.00%     37.82% # attempts to use FU when none available
system.switch_cpus0.iq.fu_full::MemRead       3270875     23.92%     61.74% # attempts to use FU when none available
system.switch_cpus0.iq.fu_full::MemWrite      1157082      8.46%     70.20% # attempts to use FU when none available
system.switch_cpus0.iq.fu_full::FloatMemRead      3542446     25.91%     96.11% # attempts to use FU when none available
system.switch_cpus0.iq.fu_full::FloatMemWrite       532264      3.89%    100.00% # attempts to use FU when none available
system.switch_cpus0.iq.fu_full::IprAccess            0      0.00%    100.00% # attempts to use FU when none available
system.switch_cpus0.iq.fu_full::InstPrefetch            0      0.00%    100.00% # attempts to use FU when none available
system.switch_cpus0.iq.int_alu_accesses     390858340                       # Number of integer alu accesses
system.switch_cpus0.iq.int_inst_queue_reads    878413421                       # Number of integer instruction queue reads
system.switch_cpus0.iq.int_inst_queue_wakeup_accesses    381467734                       # Number of integer instruction queue wakeup accesses
system.switch_cpus0.iq.int_inst_queue_writes    445725161                       # Number of integer instruction queue writes
system.switch_cpus0.iq.iqInstsAdded         502274612                       # Number of instructions added to the IQ (excludes non-spec)
system.switch_cpus0.iq.iqInstsIssued        482680838                       # Number of instructions issued
system.switch_cpus0.iq.iqNonSpecInstsAdded           12                       # Number of non-speculative instructions added to the IQ
system.switch_cpus0.iq.iqSquashedInstsExamined     51822439                       # Number of squashed instructions iterated over during squash; mainly for profiling
system.switch_cpus0.iq.iqSquashedInstsIssued       706487                       # Number of squashed instructions issued
system.switch_cpus0.iq.iqSquashedNonSpecRemoved           12                       # Number of squashed non-spec instructions that were removed
system.switch_cpus0.iq.iqSquashedOperandsExamined     75168324                       # Number of squashed operands that are examined and possibly removed from graph
system.switch_cpus0.iq.issued_per_cycle::samples     99409774                       # Number of insts issued each cycle
system.switch_cpus0.iq.issued_per_cycle::mean     4.855467                       # Number of insts issued each cycle
system.switch_cpus0.iq.issued_per_cycle::stdev     2.689653                       # Number of insts issued each cycle
system.switch_cpus0.iq.issued_per_cycle::underflows            0      0.00%      0.00% # Number of insts issued each cycle
system.switch_cpus0.iq.issued_per_cycle::0     13748012     13.83%     13.83% # Number of insts issued each cycle
system.switch_cpus0.iq.issued_per_cycle::1      2725026      2.74%     16.57% # Number of insts issued each cycle
system.switch_cpus0.iq.issued_per_cycle::2      5140189      5.17%     21.74% # Number of insts issued each cycle
system.switch_cpus0.iq.issued_per_cycle::3      6696610      6.74%     28.48% # Number of insts issued each cycle
system.switch_cpus0.iq.issued_per_cycle::4      9448217      9.50%     37.98% # Number of insts issued each cycle
system.switch_cpus0.iq.issued_per_cycle::5     12223290     12.30%     50.28% # Number of insts issued each cycle
system.switch_cpus0.iq.issued_per_cycle::6     15166597     15.26%     65.53% # Number of insts issued each cycle
system.switch_cpus0.iq.issued_per_cycle::7     14417960     14.50%     80.04% # Number of insts issued each cycle
system.switch_cpus0.iq.issued_per_cycle::8     19843873     19.96%    100.00% # Number of insts issued each cycle
system.switch_cpus0.iq.issued_per_cycle::overflows            0      0.00%    100.00% # Number of insts issued each cycle
system.switch_cpus0.iq.issued_per_cycle::min_value            0                       # Number of insts issued each cycle
system.switch_cpus0.iq.issued_per_cycle::max_value            8                       # Number of insts issued each cycle
system.switch_cpus0.iq.issued_per_cycle::total     99409774                       # Number of insts issued each cycle
system.switch_cpus0.iq.rate                  4.851668                       # Inst issue rate
system.switch_cpus0.iq.vec_alu_accesses             0                       # Number of vector alu accesses
system.switch_cpus0.iq.vec_inst_queue_reads            0                       # Number of vector instruction queue reads
system.switch_cpus0.iq.vec_inst_queue_wakeup_accesses            0                       # Number of vector instruction queue wakeup accesses
system.switch_cpus0.iq.vec_inst_queue_writes            0                       # Number of vector instruction queue writes
system.switch_cpus0.memDep0.conflictingLoads      5196305                       # Number of conflicting loads.
system.switch_cpus0.memDep0.conflictingStores      2547253                       # Number of conflicting stores.
system.switch_cpus0.memDep0.insertedLoads    102968127                       # Number of loads inserted to the mem dependence unit.
system.switch_cpus0.memDep0.insertedStores     45382129                       # Number of stores inserted to the mem dependence unit.
system.switch_cpus0.misc_regfile_reads      236378316                       # number of misc regfile reads
system.switch_cpus0.misc_regfile_writes             1                       # number of misc regfile writes
system.switch_cpus0.numCycles                99487602                       # number of cpu cycles simulated
system.switch_cpus0.numWorkItemsCompleted            0                       # number of work items this cpu completed
system.switch_cpus0.numWorkItemsStarted             0                       # number of work items this cpu started
system.switch_cpus0.timesIdled                    333                       # Number of times that the entire CPU went into an idle state and unscheduled itself
system.switch_cpus1.cc_regfile_reads        204519424                       # number of cc regfile reads
system.switch_cpus1.cc_regfile_writes       100498611                       # number of cc regfile writes
system.switch_cpus1.committedInsts          249970505                       # Number of Instructions Simulated
system.switch_cpus1.committedOps            450446345                       # Number of Ops (including micro ops) Simulated
system.switch_cpus1.cpi                      0.397997                       # CPI: Cycles Per Instruction
system.switch_cpus1.cpi_total                0.397997                       # CPI: Total CPI of All Threads
system.switch_cpus1.fp_regfile_reads        146647974                       # number of floating regfile reads
system.switch_cpus1.fp_regfile_writes        84004804                       # number of floating regfile writes
system.switch_cpus1.idleCycles                  77717                       # Total number of cycles that the CPU has spent unscheduled due to idling
system.switch_cpus1.iew.branchMispredicts      1092562                       # Number of branch mispredicts detected at execute
system.switch_cpus1.iew.exec_branches        46297137                       # Number of branches executed
system.switch_cpus1.iew.exec_nop                    0                       # number of nop insts executed
system.switch_cpus1.iew.exec_rate            4.821297                       # Inst execution rate
system.switch_cpus1.iew.exec_refs           140816777                       # number of memory reference insts executed
system.switch_cpus1.iew.exec_stores          42650678                       # Number of stores executed
system.switch_cpus1.iew.exec_swp                    0                       # number of swp insts executed
system.switch_cpus1.iew.iewBlockCycles        6047714                       # Number of cycles IEW is blocking
system.switch_cpus1.iew.iewDispLoadInsts    102965039                       # Number of dispatched load instructions
system.switch_cpus1.iew.iewDispNonSpecInsts            8                       # Number of dispatched non-speculative instructions
system.switch_cpus1.iew.iewDispSquashedInsts          260                       # Number of squashed instructions skipped by dispatch
system.switch_cpus1.iew.iewDispStoreInsts     45379564                       # Number of dispatched store instructions
system.switch_cpus1.iew.iewDispatchedInsts    502261568                       # Number of instructions dispatched to IQ
system.switch_cpus1.iew.iewExecLoadInsts     98166099                       # Number of load instructions executed
system.switch_cpus1.iew.iewExecSquashedInsts      3008641                       # Number of squashed instructions skipped in execute
system.switch_cpus1.iew.iewExecutedInsts    479659299                       # Number of executed instructions
system.switch_cpus1.iew.iewIQFullEvents         10037                       # Number of times the IQ has become full, causing a stall
system.switch_cpus1.iew.iewIdleCycles               0                       # Number of cycles IEW is idle
system.switch_cpus1.iew.iewLSQFullEvents       182033                       # Number of times the LSQ has become full, causing a stall
system.switch_cpus1.iew.iewSquashCycles        993268                       # Number of cycles IEW is squashing
system.switch_cpus1.iew.iewUnblockCycles       195743                       # Number of cycles IEW is unblocking
system.switch_cpus1.iew.memOrderViolationEvents        17495                       # Number of memory order violations
system.switch_cpus1.iew.predictedNotTakenIncorrect       731623                       # Number of branches that were predicted not taken incorrectly
system.switch_cpus1.iew.predictedTakenIncorrect       360939                       # Number of branches that were predicted taken incorrectly
system.switch_cpus1.iew.wb_consumers        627935748                       # num instructions consuming a value
system.switch_cpus1.iew.wb_count            477882705                       # cumulative count of insts written-back
system.switch_cpus1.iew.wb_fanout            0.567166                       # average fanout of values written-back
system.switch_cpus1.iew.wb_producers        356144073                       # num instructions producing a value
system.switch_cpus1.iew.wb_rate              4.803440                       # insts written-back per cycle
system.switch_cpus1.iew.wb_sent             479154421                       # cumulative count of insts sent to commit
system.switch_cpus1.int_regfile_reads       664397461                       # number of integer regfile reads
system.switch_cpus1.int_regfile_writes      299426046                       # number of integer regfile writes
system.switch_cpus1.ipc                      2.512579                       # IPC: Instructions Per Cycle
system.switch_cpus1.ipc_total                2.512579                       # IPC: Total IPC of All Threads
system.switch_cpus1.iq.FU_type_0::No_OpClass      2621621      0.54%      0.54% # Type of FU issued
system.switch_cpus1.iq.FU_type_0::IntAlu    289432395     59.97%     60.51% # Type of FU issued
system.switch_cpus1.iq.FU_type_0::IntMult       962156      0.20%     60.71% # Type of FU issued
system.switch_cpus1.iq.FU_type_0::IntDiv            0      0.00%     60.71% # Type of FU issued
system.switch_cpus1.iq.FU_type_0::FloatAdd      1082598      0.22%     60.93% # Type of FU issued
system.switch_cpus1.iq.FU_type_0::FloatCmp            0      0.00%     60.93% # Type of FU issued
system.switch_cpus1.iq.FU_type_0::FloatCvt            0      0.00%     60.93% # Type of FU issued
system.switch_cpus1.iq.FU_type_0::FloatMult            0      0.00%     60.93% # Type of FU issued
system.switch_cpus1.iq.FU_type_0::FloatMultAcc            0      0.00%     60.93% # Type of FU issued
system.switch_cpus1.iq.FU_type_0::FloatDiv            0      0.00%     60.93% # Type of FU issued
system.switch_cpus1.iq.FU_type_0::FloatMisc            0      0.00%     60.93% # Type of FU issued
system.switch_cpus1.iq.FU_type_0::FloatSqrt            0      0.00%     60.93% # Type of FU issued
system.switch_cpus1.iq.FU_type_0::SimdAdd            0      0.00%     60.93% # Type of FU issued
system.switch_cpus1.iq.FU_type_0::SimdAddAcc            0      0.00%     60.93% # Type of FU issued
system.switch_cpus1.iq.FU_type_0::SimdAlu      2982764      0.62%     61.55% # Type of FU issued
system.switch_cpus1.iq.FU_type_0::SimdCmp            0      0.00%     61.55% # Type of FU issued
system.switch_cpus1.iq.FU_type_0::SimdCvt            0      0.00%     61.55% # Type of FU issued
system.switch_cpus1.iq.FU_type_0::SimdMisc        80069      0.02%     61.57% # Type of FU issued
system.switch_cpus1.iq.FU_type_0::SimdMult            0      0.00%     61.57% # Type of FU issued
system.switch_cpus1.iq.FU_type_0::SimdMultAcc            0      0.00%     61.57% # Type of FU issued
system.switch_cpus1.iq.FU_type_0::SimdShift            0      0.00%     61.57% # Type of FU issued
system.switch_cpus1.iq.FU_type_0::SimdShiftAcc            0      0.00%     61.57% # Type of FU issued
system.switch_cpus1.iq.FU_type_0::SimdDiv            0      0.00%     61.57% # Type of FU issued
system.switch_cpus1.iq.FU_type_0::SimdSqrt            0      0.00%     61.57% # Type of FU issued
system.switch_cpus1.iq.FU_type_0::SimdFloatAdd     17491420      3.62%     65.19% # Type of FU issued
system.switch_cpus1.iq.FU_type_0::SimdFloatAlu            0      0.00%     65.19% # Type of FU issued
system.switch_cpus1.iq.FU_type_0::SimdFloatCmp        61416      0.01%     65.20% # Type of FU issued
system.switch_cpus1.iq.FU_type_0::SimdFloatCvt      7579354      1.57%     66.77% # Type of FU issued
system.switch_cpus1.iq.FU_type_0::SimdFloatDiv       605432      0.13%     66.90% # Type of FU issued
system.switch_cpus1.iq.FU_type_0::SimdFloatMisc            0      0.00%     66.90% # Type of FU issued
system.switch_cpus1.iq.FU_type_0::SimdFloatMult     17347804      3.59%     70.49% # Type of FU issued
system.switch_cpus1.iq.FU_type_0::SimdFloatMultAcc            0      0.00%     70.49% # Type of FU issued
system.switch_cpus1.iq.FU_type_0::SimdFloatSqrt        38390      0.01%     70.50% # Type of FU issued
system.switch_cpus1.iq.FU_type_0::SimdReduceAdd            0      0.00%     70.50% # Type of FU issued
system.switch_cpus1.iq.FU_type_0::SimdReduceAlu            0      0.00%     70.50% # Type of FU issued
system.switch_cpus1.iq.FU_type_0::SimdReduceCmp            0      0.00%     70.50% # Type of FU issued
system.switch_cpus1.iq.FU_type_0::SimdFloatReduceAdd            0      0.00%     70.50% # Type of FU issued
system.switch_cpus1.iq.FU_type_0::SimdFloatReduceCmp            0      0.00%     70.50% # Type of FU issued
[...]
system.switch_cpus3.commit.numCommittedDist::2      5083323      5.50%     30.60% # Number of insts commited each cycle
system.switch_cpus3.commit.numCommittedDist::3     10115531     10.94%     41.54% # Number of insts commited each cycle
system.switch_cpus3.commit.numCommittedDist::4      3178994      3.44%     44.98% # Number of insts commited each cycle
system.switch_cpus3.commit.numCommittedDist::5      2226924      2.41%     47.39% # Number of insts commited each cycle
system.switch_cpus3.commit.numCommittedDist::6      3400480      3.68%     51.07% # Number of insts commited each cycle
system.switch_cpus3.commit.numCommittedDist::7      3500034      3.79%     54.85% # Number of insts commited each cycle
system.switch_cpus3.commit.numCommittedDist::8     41748946     45.15%    100.00% # Number of insts commited each cycle
system.switch_cpus3.commit.numCommittedDist::overflows            0      0.00%    100.00% # Number of insts commited each cycle
system.switch_cpus3.commit.numCommittedDist::min_value            0                       # Number of insts commited each cycle
system.switch_cpus3.commit.numCommittedDist::max_value            8                       # Number of insts commited each cycle
system.switch_cpus3.commit.numCommittedDist::total     92470008                       # Number of insts commited each cycle
system.switch_cpus3.commit.instsCommitted    250000002                       # Number of instructions committed
system.switch_cpus3.commit.opsCommitted     450499431                       # Number of ops (including micro ops) committed
system.switch_cpus3.commit.memRefs          132213705                       # Number of memory references committed
system.switch_cpus3.commit.loads             91796576                       # Number of loads committed
system.switch_cpus3.commit.amos                     0                       # Number of atomic instructions committed
system.switch_cpus3.commit.membars                  0                       # Number of memory barriers committed
system.switch_cpus3.commit.branches          44284657                       # Number of branches committed
system.switch_cpus3.commit.vector                   0                       # Number of committed Vector instructions.
system.switch_cpus3.commit.floating          93661116                       # Number of committed floating point instructions.
system.switch_cpus3.commit.integer          395884411                       # Number of committed integer instructions.
system.switch_cpus3.commit.functionCalls      6935287                       # Number of function calls committed.
system.switch_cpus3.commit.committedInstType_0::No_OpClass      2418326      0.54%      0.54% # Class of committed instruction
system.switch_cpus3.commit.committedInstType_0::IntAlu    268729942     59.65%     60.19% # Class of committed instruction
system.switch_cpus3.commit.committedInstType_0::IntMult       953156      0.21%     60.40% # Class of committed instruction
system.switch_cpus3.commit.committedInstType_0::IntDiv            0      0.00%     60.40% # Class of committed instruction
system.switch_cpus3.commit.committedInstType_0::FloatAdd      1017886      0.23%     60.63% # Class of committed instruction
system.switch_cpus3.commit.committedInstType_0::FloatCmp            0      0.00%     60.63% # Class of committed instruction
system.switch_cpus3.commit.committedInstType_0::FloatCvt            0      0.00%     60.63% # Class of committed instruction
system.switch_cpus3.commit.committedInstType_0::FloatMult            0      0.00%     60.63% # Class of committed instruction
system.switch_cpus3.commit.committedInstType_0::FloatMultAcc            0      0.00%     60.63% # Class of committed instruction
system.switch_cpus3.commit.committedInstType_0::FloatDiv            0      0.00%     60.63% # Class of committed instruction
system.switch_cpus3.commit.committedInstType_0::FloatMisc            0      0.00%     60.63% # Class of committed instruction
system.switch_cpus3.commit.committedInstType_0::FloatSqrt            0      0.00%     60.63% # Class of committed instruction
system.switch_cpus3.commit.committedInstType_0::SimdAdd            0      0.00%     60.63% # Class of committed instruction
system.switch_cpus3.commit.committedInstType_0::SimdAddAcc            0      0.00%     60.63% # Class of committed instruction
system.switch_cpus3.commit.committedInstType_0::SimdAlu      2922546      0.65%     61.27% # Class of committed instruction
system.switch_cpus3.commit.committedInstType_0::SimdCmp            0      0.00%     61.27% # Class of committed instruction
system.switch_cpus3.commit.committedInstType_0::SimdCvt            0      0.00%     61.27% # Class of committed instruction
system.switch_cpus3.commit.committedInstType_0::SimdMisc        80071      0.02%     61.29% # Class of committed instruction
system.switch_cpus3.commit.committedInstType_0::SimdMult            0      0.00%     61.29% # Class of committed instruction
system.switch_cpus3.commit.committedInstType_0::SimdMultAcc            0      0.00%     61.29% # Class of committed instruction
system.switch_cpus3.commit.committedInstType_0::SimdShift            0      0.00%     61.29% # Class of committed instruction
system.switch_cpus3.commit.committedInstType_0::SimdShiftAcc            0      0.00%     61.29% # Class of committed instruction
system.switch_cpus3.commit.committedInstType_0::SimdDiv            0      0.00%     61.29% # Class of committed instruction
system.switch_cpus3.commit.committedInstType_0::SimdSqrt            0      0.00%     61.29% # Class of committed instruction
system.switch_cpus3.commit.committedInstType_0::SimdFloatAdd     17150648      3.81%     65.10% # Class of committed instruction
system.switch_cpus3.commit.committedInstType_0::SimdFloatAlu            0      0.00%     65.10% # Class of committed instruction
system.switch_cpus3.commit.committedInstType_0::SimdFloatCmp        61424      0.01%     65.11% # Class of committed instruction
system.switch_cpus3.commit.committedInstType_0::SimdFloatCvt      7400243      1.64%     66.76% # Class of committed instruction
system.switch_cpus3.commit.committedInstType_0::SimdFloatDiv       592164      0.13%     66.89% # Class of committed instruction
system.switch_cpus3.commit.committedInstType_0::SimdFloatMisc            0      0.00%     66.89% # Class of committed instruction
system.switch_cpus3.commit.committedInstType_0::SimdFloatMult     16927587      3.76%     70.64% # Class of committed instruction
system.switch_cpus3.commit.committedInstType_0::SimdFloatMultAcc            0      0.00%     70.64% # Class of committed instruction
system.switch_cpus3.commit.committedInstType_0::SimdFloatSqrt        31733      0.01%     70.65% # Class of committed instruction
system.switch_cpus3.commit.committedInstType_0::SimdReduceAdd            0      0.00%     70.65% # Class of committed instruction
system.switch_cpus3.commit.committedInstType_0::SimdReduceAlu            0      0.00%     70.65% # Class of committed instruction
system.switch_cpus3.commit.committedInstType_0::SimdReduceCmp            0      0.00%     70.65% # Class of committed instruction
system.switch_cpus3.commit.committedInstType_0::SimdFloatReduceAdd            0      0.00%     70.65% # Class of committed instruction
system.switch_cpus3.commit.committedInstType_0::SimdFloatReduceCmp            0      0.00%     70.65% # Class of committed instruction
system.switch_cpus3.commit.committedInstType_0::SimdAes            0      0.00%     70.65% # Class of committed instruction
system.switch_cpus3.commit.committedInstType_0::SimdAesMix            0      0.00%     70.65% # Class of committed instruction
system.switch_cpus3.commit.committedInstType_0::SimdSha1Hash            0      0.00%     70.65% # Class of committed instruction
system.switch_cpus3.commit.committedInstType_0::SimdSha1Hash2            0      0.00%     70.65% # Class of committed instruction
system.switch_cpus3.commit.committedInstType_0::SimdSha256Hash            0      0.00%     70.65% # Class of committed instruction
system.switch_cpus3.commit.committedInstType_0::SimdSha256Hash2            0      0.00%     70.65% # Class of committed instruction
system.switch_cpus3.commit.committedInstType_0::SimdShaSigma2            0      0.00%     70.65% # Class of committed instruction
system.switch_cpus3.commit.committedInstType_0::SimdShaSigma3            0      0.00%     70.65% # Class of committed instruction
system.switch_cpus3.commit.committedInstType_0::SimdPredAlu            0      0.00%     70.65% # Class of committed instruction
system.switch_cpus3.commit.committedInstType_0::MemRead     56694738     12.58%     83.24% # Class of committed instruction
system.switch_cpus3.commit.committedInstType_0::MemWrite     34125841      7.58%     90.81% # Class of committed instruction
system.switch_cpus3.commit.committedInstType_0::FloatMemRead     35101838      7.79%     98.60% # Class of committed instruction
system.switch_cpus3.commit.committedInstType_0::FloatMemWrite      6291288      1.40%    100.00% # Class of committed instruction
system.switch_cpus3.commit.committedInstType_0::IprAccess            0      0.00%    100.00% # Class of committed instruction
system.switch_cpus3.commit.committedInstType_0::InstPrefetch            0      0.00%    100.00% # Class of committed instruction
system.switch_cpus3.commit.committedInstType_0::total    450499431                       # Class of committed instruction
system.switch_cpus3.commit.commitEligibleSamples     41748946                       # number cycles where commit BW limit reached
system.switch_cpus3.decode.idleCycles         5910123                       # Number of cycles decode is idle
system.switch_cpus3.decode.blockedCycles     15056585                       # Number of cycles decode is blocked
system.switch_cpus3.decode.runCycles         71364501                       # Number of cycles decode is running
system.switch_cpus3.decode.unblockCycles      6084771                       # Number of cycles decode is unblocking
system.switch_cpus3.decode.squashCycles        993333                       # Number of cycles decode is squashing
system.switch_cpus3.decode.branchResolved     21313655                       # Number of times decode resolved a  branch
system.switch_cpus3.decode.branchMispred        70951                       # Number of times decode detected a branch misprediction
system.switch_cpus3.decode.decodedInsts     520794942                       # Number of instructions handled by decode
system.switch_cpus3.decode.squashedInsts       431040                       # Number of squashed instructions handled by decode
system.switch_cpus3.dtb.rdAccesses           98387219                       # TLB accesses on read requests
system.switch_cpus3.dtb.wrAccesses           42655518                       # TLB accesses on write requests
system.switch_cpus3.dtb.rdMisses               667824                       # TLB misses on read requests
system.switch_cpus3.dtb.wrMisses               108435                       # TLB misses on write requests
system.switch_cpus3.dtb.walker.power_state.pwrStateResidencyTicks::UNDEFINED 17928134962290                       # Cumulative time (in ticks) in various power states
system.switch_cpus3.fetch.icacheStallCycles       972250                       # Number of cycles fetch is stalled on an Icache miss
system.switch_cpus3.fetch.insts             294849309                       # Number of instructions fetch has processed
system.switch_cpus3.fetch.branches           52468933                       # Number of branches that fetch encountered
system.switch_cpus3.fetch.predictedBranches     32890827                       # Number of branches that fetch has predicted taken
system.switch_cpus3.fetch.cycles             97372785                       # Number of cycles fetch has run and was not squashing or blocked
system.switch_cpus3.fetch.squashCycles        2127538                       # Number of cycles fetch has spent squashing
system.switch_cpus3.fetch.miscStallCycles           65                       # Number of cycles fetch has spent waiting on interrupts,or bad addresses, or out of MSHRs
system.switch_cpus3.fetch.pendingTrapStallCycles          398                       # Number of stall cycles due to pending traps
system.switch_cpus3.fetch.pendingQuiesceStallCycles           47                       # Number of stall cycles due to pending quiesce instructions
system.switch_cpus3.fetch.cacheLines         45451520                       # Number of cache lines fetched
system.switch_cpus3.fetch.icacheSquashes          344                       # Number of outstanding Icache misses that were squashed
system.switch_cpus3.fetch.nisnDist::samples     99409314                       # Number of instructions fetched each cycle (Total)
system.switch_cpus3.fetch.nisnDist::mean     5.366135                       # Number of instructions fetched each cycle (Total)
system.switch_cpus3.fetch.nisnDist::stdev     2.940499                       # Number of instructions fetched each cycle (Total)
system.switch_cpus3.fetch.nisnDist::underflows            0      0.00%      0.00% # Number of instructions fetched each cycle (Total)
system.switch_cpus3.fetch.nisnDist::0        11498070     11.57%     11.57% # Number of instructions fetched each cycle (Total)
system.switch_cpus3.fetch.nisnDist::1         4185419      4.21%     15.78% # Number of instructions fetched each cycle (Total)
system.switch_cpus3.fetch.nisnDist::2         6650261      6.69%     22.47% # Number of instructions fetched each cycle (Total)
system.switch_cpus3.fetch.nisnDist::3         4383046      4.41%     26.88% # Number of instructions fetched each cycle (Total)
system.switch_cpus3.fetch.nisnDist::4        11994939     12.07%     38.94% # Number of instructions fetched each cycle (Total)
system.switch_cpus3.fetch.nisnDist::5         3252725      3.27%     42.21% # Number of instructions fetched each cycle (Total)
system.switch_cpus3.fetch.nisnDist::6         8519152      8.57%     50.78% # Number of instructions fetched each cycle (Total)
system.switch_cpus3.fetch.nisnDist::7         3955149      3.98%     54.76% # Number of instructions fetched each cycle (Total)
system.switch_cpus3.fetch.nisnDist::8        44970553     45.24%    100.00% # Number of instructions fetched each cycle (Total)
system.switch_cpus3.fetch.nisnDist::overflows            0      0.00%    100.00% # Number of instructions fetched each cycle (Total)
system.switch_cpus3.fetch.nisnDist::min_value            0                       # Number of instructions fetched each cycle (Total)
system.switch_cpus3.fetch.nisnDist::max_value            8                       # Number of instructions fetched each cycle (Total)
system.switch_cpus3.fetch.nisnDist::total     99409314                       # Number of instructions fetched each cycle (Total)
system.switch_cpus3.fetch.branchRate         0.527392                       # Number of branch fetches per cycle
system.switch_cpus3.fetch.rate               2.963679                       # Number of inst fetches per cycle
system.switch_cpus3.itb.rdAccesses                  0                       # TLB accesses on read requests
system.switch_cpus3.itb.wrAccesses           45451586                       # TLB accesses on write requests
system.switch_cpus3.itb.rdMisses                    0                       # TLB misses on read requests
system.switch_cpus3.itb.wrMisses                  127                       # TLB misses on write requests
system.switch_cpus3.itb.walker.power_state.pwrStateResidencyTicks::UNDEFINED 17928134962290                       # Cumulative time (in ticks) in various power states
system.switch_cpus3.lsq0.forwLoads           18298740                       # Number of loads that had data forwarded from stores
system.switch_cpus3.lsq0.squashedLoads       11160504                       # Number of loads squashed
system.switch_cpus3.lsq0.ignoredResponses         8673                       # Number of memory responses ignored because the instruction is squashed
system.switch_cpus3.lsq0.memOrderViolation        17468                       # Number of memory ordering violations
system.switch_cpus3.lsq0.squashedStores       4982413                       # Number of stores squashed
system.switch_cpus3.lsq0.rescheduledLoads        60156                       # Number of loads that were rescheduled
system.switch_cpus3.lsq0.blockedByCache             0                       # Number of times an access to memory failed due to the cache being blocked
system.switch_cpus3.power_state.pwrStateResidencyTicks::OFF  33129382122                       # Cumulative time (in ticks) in various power states
system.switch_cpus3.rename.squashCycles        993333                       # Number of cycles rename is squashing
system.switch_cpus3.rename.idleCycles         8891110                       # Number of cycles rename is idle
system.switch_cpus3.rename.blockCycles        6439692                       # Number of cycles rename is blocking
system.switch_cpus3.rename.serializeStallCycles         1274                       # count of cycles rename stalledfor serializing inst
system.switch_cpus3.rename.runCycles         74366221                       # Number of cycles rename is running
system.switch_cpus3.rename.unblockCycles      8717670                       # Number of cycles rename is unblocking
system.switch_cpus3.rename.renamedInsts     514583486                       # Number of instructions processed by rename
system.switch_cpus3.rename.ROBFullEvents        41403                       # Number of times rename has blocked due to ROB full
system.switch_cpus3.rename.IQFullEvents       2378577                       # Number of times rename has blocked due to IQ full
system.switch_cpus3.rename.LQFullEvents       1805702                       # Number of times rename has blocked due to LQ full
system.switch_cpus3.rename.SQFullEvents       3017162                       # Number of times rename has blocked due to SQ full
system.switch_cpus3.rename.renamedOperands    520563536                       # Number of destination operands rename has renamed
system.switch_cpus3.rename.lookups         1355575105                       # Number of register rename lookups that rename has made
system.switch_cpus3.rename.intLookups       720002676                       # Number of integer rename lookups
system.switch_cpus3.rename.fpLookups        157125030                       # Number of floating rename lookups
system.switch_cpus3.rename.committedMaps    455227885                       # Number of HB maps that are committed
system.switch_cpus3.rename.undoneMaps        65335550                       # Number of HB maps that are undone due to squashing
system.switch_cpus3.rename.serializing              3                       # count of serializing insts renamed
system.switch_cpus3.rename.tempSerializing            3                       # count of temporary serializing insts renamed
system.switch_cpus3.rename.skidInsts         23168029                       # count of insts added to the skid buffer
system.switch_cpus3.rob.reads               552983792                       # The number of ROB reads
system.switch_cpus3.rob.writes             1011474567                       # The number of ROB writes
system.switch_cpus3.thread0.numInsts        250000002                       # Number of Instructions committed
system.switch_cpus3.thread0.numOps          450499431                       # Number of Ops committed
system.switch_cpus3.thread0.numMemRefs              0                       # Number of Memory References
system.voltage_domain.voltage                       1                       # Voltage in Volts

---------- End Simulation Statistics   ----------
