
---------- Begin Simulation Statistics ----------
final_tick                               16086822272136                       # Number of ticks from beginning of simulation (restored from checkpoints and never reset)
host_inst_rate                                  78098                       # Simulator instruction rate (inst/s)
host_mem_usage                               17101452                       # Number of bytes of host memory used
host_op_rate                                   109261                       # Simulator op (including micro ops) rate (op/s)
host_seconds                                  3201.12                       # Real time elapsed on the host
host_tick_rate                               71040657                       # Simulator tick rate (ticks/s)
sim_freq                                 1000000000000                       # Frequency of simulated ticks
sim_insts                                   250000024                       # Number of instructions simulated
sim_ops                                     349757033                       # Number of ops (including micro ops) simulated
sim_seconds                                  0.227409                       # Number of seconds simulated
sim_ticks                                227409452910                       # Number of ticks simulated
system.cpu.committedInsts                          24                       # Number of instructions committed
system.cpu.committedOps                            24                       # Number of ops (including micro ops) committed
system.cpu.idle_fraction                            0                       # Percentage of idle cycles
system.cpu.l2bus.snoop_filter.hit_multi_requests           21                       # Number of requests hitting in the snoop filter with multiple (>1) holders of the requested data.
system.cpu.l2bus.snoop_filter.hit_multi_snoops            0                       # Number of snoops hitting in the snoop filter with multiple (>1) holders of the requested data.
system.cpu.l2bus.snoop_filter.hit_single_requests     25088528                       # Number of requests hitting in the snoop filter with a single holder of the requested data.
system.cpu.l2bus.snoop_filter.hit_single_snoops         1279                       # Number of snoops hitting in the snoop filter with a single holder of the requested data.
system.cpu.l2bus.snoop_filter.tot_requests     50163295                       # Total number of requests made to the snoop filter.
system.cpu.l2bus.snoop_filter.tot_snoops         1279                       # Total number of snoops made to the snoop filter.
system.cpu.mmucache.mmubus.snoop_filter.hit_multi_requests            0                       # Number of requests hitting in the snoop filter with multiple (>1) holders of the requested data.
system.cpu.mmucache.mmubus.snoop_filter.hit_multi_snoops            0                       # Number of snoops hitting in the snoop filter with multiple (>1) holders of the requested data.
system.cpu.mmucache.mmubus.snoop_filter.hit_single_requests            0                       # Number of requests hitting in the snoop filter with a single holder of the requested data.
system.cpu.mmucache.mmubus.snoop_filter.hit_single_snoops            0                       # Number of snoops hitting in the snoop filter with a single holder of the requested data.
system.cpu.mmucache.mmubus.snoop_filter.tot_requests            0                       # Total number of requests made to the snoop filter.
system.cpu.mmucache.mmubus.snoop_filter.tot_snoops            0                       # Total number of snoops made to the snoop filter.
system.cpu.not_idle_fraction                        1                       # Percentage of non-idle cycles
system.cpu.numCycles                               30                       # number of cpu cycles simulated
system.cpu.numWorkItemsCompleted                    0                       # number of work items this cpu completed
system.cpu.numWorkItemsStarted                      0                       # number of work items this cpu started
system.cpu.num_busy_cycles                         30                       # Number of busy cycles
system.cpu.num_conditional_control_insts            0                       # number of instructions that are conditional controls
system.cpu.num_fp_alu_accesses                     24                       # Number of float alu accesses
system.cpu.num_fp_insts                            24                       # number of float instructions
system.cpu.num_fp_register_reads                   44                       # number of times the floating registers were read
system.cpu.num_fp_register_writes                  22                       # number of times the floating registers were written
system.cpu.num_func_calls                           0                       # number of times a function call or return occured
system.cpu.num_idle_cycles                          0                       # Number of idle cycles
system.cpu.num_int_alu_accesses                    10                       # Number of integer alu accesses
system.cpu.num_int_insts                           10                       # number of integer instructions
system.cpu.num_int_register_reads                  30                       # number of times the integer registers were read
system.cpu.num_int_register_writes                  0                       # number of times the integer registers were written
system.cpu.num_load_insts                           8                       # Number of load instructions
system.cpu.num_mem_refs                            10                       # number of memory refs
system.cpu.num_store_insts                          2                       # Number of store instructions
system.cpu.num_vec_alu_accesses                     0                       # Number of vector alu accesses
system.cpu.num_vec_insts                            0                       # number of vector instructions
system.cpu.num_vec_register_reads                   0                       # number of times the vector registers were read
system.cpu.num_vec_register_writes                  0                       # number of times the vector registers were written
system.cpu.op_class::No_OpClass                     0      0.00%      0.00% # Class of executed instruction
system.cpu.op_class::IntAlu                         0      0.00%      0.00% # Class of executed instruction
system.cpu.op_class::IntMult                        0      0.00%      0.00% # Class of executed instruction
system.cpu.op_class::IntDiv                         0      0.00%      0.00% # Class of executed instruction
system.cpu.op_class::FloatAdd                       0      0.00%      0.00% # Class of executed instruction
system.cpu.op_class::FloatCmp                       0      0.00%      0.00% # Class of executed instruction
system.cpu.op_class::FloatCvt                       0      0.00%      0.00% # Class of executed instruction
system.cpu.op_class::FloatMult                      0      0.00%      0.00% # Class of executed instruction
system.cpu.op_class::FloatMultAcc                   0      0.00%      0.00% # Class of executed instruction
system.cpu.op_class::FloatDiv                       0      0.00%      0.00% # Class of executed instruction
system.cpu.op_class::FloatMisc                      0      0.00%      0.00% # Class of executed instruction
system.cpu.op_class::FloatSqrt                      0      0.00%      0.00% # Class of executed instruction
system.cpu.op_class::SimdAdd                        0      0.00%      0.00% # Class of executed instruction
system.cpu.op_class::SimdAddAcc                     0      0.00%      0.00% # Class of executed instruction
system.cpu.op_class::SimdAlu                        0      0.00%      0.00% # Class of executed instruction
system.cpu.op_class::SimdCmp                        0      0.00%      0.00% # Class of executed instruction
system.cpu.op_class::SimdCvt                        0      0.00%      0.00% # Class of executed instruction
system.cpu.op_class::SimdMisc                       0      0.00%      0.00% # Class of executed instruction
system.cpu.op_class::SimdMult                       0      0.00%      0.00% # Class of executed instruction
system.cpu.op_class::SimdMultAcc                    0      0.00%      0.00% # Class of executed instruction
system.cpu.op_class::SimdShift                      0      0.00%      0.00% # Class of executed instruction
system.cpu.op_class::SimdShiftAcc                   0      0.00%      0.00% # Class of executed instruction
system.cpu.op_class::SimdDiv                        0      0.00%      0.00% # Class of executed instruction
system.cpu.op_class::SimdSqrt                       0      0.00%      0.00% # Class of executed instruction
system.cpu.op_class::SimdFloatAdd                   6     25.00%     25.00% # Class of executed instruction
system.cpu.op_class::SimdFloatAlu                   0      0.00%     25.00% # Class of executed instruction
system.cpu.op_class::SimdFloatCmp                   0      0.00%     25.00% # Class of executed instruction
system.cpu.op_class::SimdFloatCvt                   0      0.00%     25.00% # Class of executed instruction
system.cpu.op_class::SimdFloatDiv                   0      0.00%     25.00% # Class of executed instruction
system.cpu.op_class::SimdFloatMisc                  0      0.00%     25.00% # Class of executed instruction
system.cpu.op_class::SimdFloatMult                  8     33.33%     58.33% # Class of executed instruction
system.cpu.op_class::SimdFloatMultAcc               0      0.00%     58.33% # Class of executed instruction
system.cpu.op_class::SimdFloatSqrt                  0      0.00%     58.33% # Class of executed instruction
system.cpu.op_class::SimdReduceAdd                  0      0.00%     58.33% # Class of executed instruction
system.cpu.op_class::SimdReduceAlu                  0      0.00%     58.33% # Class of executed instruction
system.cpu.op_class::SimdReduceCmp                  0      0.00%     58.33% # Class of executed instruction
system.cpu.op_class::SimdFloatReduceAdd             0      0.00%     58.33% # Class of executed instruction
system.cpu.op_class::SimdFloatReduceCmp             0      0.00%     58.33% # Class of executed instruction
system.cpu.op_class::SimdAes                        0      0.00%     58.33% # Class of executed instruction
system.cpu.op_class::SimdAesMix                     0      0.00%     58.33% # Class of executed instruction
system.cpu.op_class::SimdSha1Hash                   0      0.00%     58.33% # Class of executed instruction
system.cpu.op_class::SimdSha1Hash2                  0      0.00%     58.33% # Class of executed instruction
system.cpu.op_class::SimdSha256Hash                 0      0.00%     58.33% # Class of executed instruction
system.cpu.op_class::SimdSha256Hash2                0      0.00%     58.33% # Class of executed instruction
system.cpu.op_class::SimdShaSigma2                  0      0.00%     58.33% # Class of executed instruction
system.cpu.op_class::SimdShaSigma3                  0      0.00%     58.33% # Class of executed instruction
system.cpu.op_class::SimdPredAlu                    0      0.00%     58.33% # Class of executed instruction
system.cpu.op_class::MemRead                        0      0.00%     58.33% # Class of executed instruction
system.cpu.op_class::MemWrite                       0      0.00%     58.33% # Class of executed instruction
system.cpu.op_class::FloatMemRead                   8     33.33%     91.67% # Class of executed instruction
system.cpu.op_class::FloatMemWrite                  2      8.33%    100.00% # Class of executed instruction
system.cpu.op_class::IprAccess                      0      0.00%    100.00% # Class of executed instruction
system.cpu.op_class::InstPrefetch                   0      0.00%    100.00% # Class of executed instruction
system.cpu.op_class::total                         24                       # Class of executed instruction
system.cpu.workload.numSyscalls                     0                       # Number of system calls
system.l3bus.snoop_filter.hit_multi_requests            0                       # Number of requests hitting in the snoop filter with multiple (>1) holders of the requested data.
system.l3bus.snoop_filter.hit_multi_snoops            0                       # Number of snoops hitting in the snoop filter with multiple (>1) holders of the requested data.
system.l3bus.snoop_filter.hit_single_requests      4149496                       # Number of requests hitting in the snoop filter with a single holder of the requested data.
system.l3bus.snoop_filter.hit_single_snoops            0                       # Number of snoops hitting in the snoop filter with a single holder of the requested data.
system.l3bus.snoop_filter.tot_requests        8303567                       # Total number of requests made to the snoop filter.
system.l3bus.snoop_filter.tot_snoops                0                       # Total number of snoops made to the snoop filter.
system.membus.snoop_filter.hit_multi_requests            0                       # Number of requests hitting in the snoop filter with multiple (>1) holders of the requested data.
system.membus.snoop_filter.hit_multi_snoops            0                       # Number of snoops hitting in the snoop filter with multiple (>1) holders of the requested data.
system.membus.snoop_filter.hit_single_requests      4031675                       # Number of requests hitting in the snoop filter with a single holder of the requested data.
system.membus.snoop_filter.hit_single_snoops            0                       # Number of snoops hitting in the snoop filter with a single holder of the requested data.
system.membus.snoop_filter.tot_requests       8133482                       # Total number of requests made to the snoop filter.
system.membus.snoop_filter.tot_snoops               0                       # Total number of snoops made to the snoop filter.
system.switch_cpus.cc_regfile_reads          71042283                       # number of cc regfile reads
system.switch_cpus.cc_regfile_writes         51301186                       # number of cc regfile writes
system.switch_cpus.committedInsts           250000000                       # Number of Instructions Simulated
system.switch_cpus.committedOps             349757009                       # Number of Ops (including micro ops) Simulated
system.switch_cpus.cpi                       2.731645                       # CPI: Cycles Per Instruction
system.switch_cpus.cpi_total                 2.731645                       # CPI: Total CPI of All Threads
system.switch_cpus.fp_regfile_reads         296813627                       # number of floating regfile reads
system.switch_cpus.fp_regfile_writes        151657466                       # number of floating regfile writes
system.switch_cpus.idleCycles                  270723                       # Total number of cycles that the CPU has spent unscheduled due to idling
system.switch_cpus.iew.branchMispredicts        21818                       # Number of branch mispredicts detected at execute
system.switch_cpus.iew.exec_branches         19587023                       # Number of branches executed
system.switch_cpus.iew.exec_nop                     0                       # number of nop insts executed
system.switch_cpus.iew.exec_rate             0.515858                       # Inst execution rate
system.switch_cpus.iew.exec_refs            130623736                       # number of memory reference insts executed
system.switch_cpus.iew.exec_stores           36758273                       # Number of stores executed
system.switch_cpus.iew.exec_swp                     0                       # number of swp insts executed
system.switch_cpus.iew.iewBlockCycles        66115852                       # Number of cycles IEW is blocking
system.switch_cpus.iew.iewDispLoadInsts      91697433                       # Number of dispatched load instructions
system.switch_cpus.iew.iewDispNonSpecInsts            9                       # Number of dispatched non-speculative instructions
system.switch_cpus.iew.iewDispSquashedInsts          257                       # Number of squashed instructions skipped by dispatch
system.switch_cpus.iew.iewDispStoreInsts     36802196                       # Number of dispatched store instructions
system.switch_cpus.iew.iewDispatchedInsts    350252961                       # Number of instructions dispatched to IQ
system.switch_cpus.iew.iewExecLoadInsts      93865463                       # Number of load instructions executed
system.switch_cpus.iew.iewExecSquashedInsts        41965                       # Number of squashed instructions skipped in execute
system.switch_cpus.iew.iewExecutedInsts     352284993                       # Number of executed instructions
system.switch_cpus.iew.iewIQFullEvents         680988                       # Number of times the IQ has become full, causing a stall
system.switch_cpus.iew.iewIdleCycles                0                       # Number of cycles IEW is idle
system.switch_cpus.iew.iewLSQFullEvents     198799738                       # Number of times the LSQ has become full, causing a stall
system.switch_cpus.iew.iewSquashCycles          22751                       # Number of cycles IEW is squashing
system.switch_cpus.iew.iewUnblockCycles     200260429                       # Number of cycles IEW is unblocking
system.switch_cpus.iew.memOrderViolationEvents         2260                       # Number of memory order violations
system.switch_cpus.iew.predictedNotTakenIncorrect         9256                       # Number of branches that were predicted not taken incorrectly
system.switch_cpus.iew.predictedTakenIncorrect        12562                       # Number of branches that were predicted taken incorrectly
system.switch_cpus.iew.wb_consumers         358042049                       # num instructions consuming a value
system.switch_cpus.iew.wb_count             349989315                       # cumulative count of insts written-back
system.switch_cpus.iew.wb_fanout             0.644473                       # average fanout of values written-back
system.switch_cpus.iew.wb_producers         230748465                       # num instructions producing a value
system.switch_cpus.iew.wb_rate               0.512496                       # insts written-back per cycle
system.switch_cpus.iew.wb_sent              349996396                       # cumulative count of insts sent to commit
system.switch_cpus.int_regfile_reads        384629625                       # number of integer regfile reads
system.switch_cpus.int_regfile_writes       139899959                       # number of integer regfile writes
system.switch_cpus.ipc                       0.366080                       # IPC: Instructions Per Cycle
system.switch_cpus.ipc_total                 0.366080                       # IPC: Total IPC of All Threads
system.switch_cpus.iq.FU_type_0::No_OpClass         5807      0.00%      0.00% # Type of FU issued
system.switch_cpus.iq.FU_type_0::IntAlu     136238560     38.67%     38.67% # Type of FU issued
system.switch_cpus.iq.FU_type_0::IntMult       250644      0.07%     38.74% # Type of FU issued
system.switch_cpus.iq.FU_type_0::IntDiv            14      0.00%     38.74% # Type of FU issued
system.switch_cpus.iq.FU_type_0::FloatAdd      6295901      1.79%     40.53% # Type of FU issued
system.switch_cpus.iq.FU_type_0::FloatCmp            0      0.00%     40.53% # Type of FU issued
system.switch_cpus.iq.FU_type_0::FloatCvt            2      0.00%     40.53% # Type of FU issued
system.switch_cpus.iq.FU_type_0::FloatMult            0      0.00%     40.53% # Type of FU issued
system.switch_cpus.iq.FU_type_0::FloatMultAcc            0      0.00%     40.53% # Type of FU issued
system.switch_cpus.iq.FU_type_0::FloatDiv            0      0.00%     40.53% # Type of FU issued
system.switch_cpus.iq.FU_type_0::FloatMisc            0      0.00%     40.53% # Type of FU issued
system.switch_cpus.iq.FU_type_0::FloatSqrt            0      0.00%     40.53% # Type of FU issued
system.switch_cpus.iq.FU_type_0::SimdAdd          168      0.00%     40.53% # Type of FU issued
system.switch_cpus.iq.FU_type_0::SimdAddAcc            0      0.00%     40.53% # Type of FU issued
system.switch_cpus.iq.FU_type_0::SimdAlu      1147376      0.33%     40.85% # Type of FU issued
system.switch_cpus.iq.FU_type_0::SimdCmp            0      0.00%     40.85% # Type of FU issued
system.switch_cpus.iq.FU_type_0::SimdCvt         1694      0.00%     40.85% # Type of FU issued
system.switch_cpus.iq.FU_type_0::SimdMisc      2863953      0.81%     41.67% # Type of FU issued
system.switch_cpus.iq.FU_type_0::SimdMult            0      0.00%     41.67% # Type of FU issued
system.switch_cpus.iq.FU_type_0::SimdMultAcc            0      0.00%     41.67% # Type of FU issued
system.switch_cpus.iq.FU_type_0::SimdShift            0      0.00%     41.67% # Type of FU issued
system.switch_cpus.iq.FU_type_0::SimdShiftAcc            0      0.00%     41.67% # Type of FU issued
system.switch_cpus.iq.FU_type_0::SimdDiv            0      0.00%     41.67% # Type of FU issued
system.switch_cpus.iq.FU_type_0::SimdSqrt            0      0.00%     41.67% # Type of FU issued
system.switch_cpus.iq.FU_type_0::SimdFloatAdd     27045230      7.68%     49.34% # Type of FU issued
system.switch_cpus.iq.FU_type_0::SimdFloatAlu            0      0.00%     49.34% # Type of FU issued
system.switch_cpus.iq.FU_type_0::SimdFloatCmp       592712      0.17%     49.51% # Type of FU issued
system.switch_cpus.iq.FU_type_0::SimdFloatCvt      2310026      0.66%     50.17% # Type of FU issued
system.switch_cpus.iq.FU_type_0::SimdFloatDiv           13      0.00%     50.17% # Type of FU issued
system.switch_cpus.iq.FU_type_0::SimdFloatMisc            0      0.00%     50.17% # Type of FU issued
system.switch_cpus.iq.FU_type_0::SimdFloatMult     44923052     12.75%     62.92% # Type of FU issued
system.switch_cpus.iq.FU_type_0::SimdFloatMultAcc            0      0.00%     62.92% # Type of FU issued
system.switch_cpus.iq.FU_type_0::SimdFloatSqrt            0      0.00%     62.92% # Type of FU issued
system.switch_cpus.iq.FU_type_0::SimdReduceAdd            0      0.00%     62.92% # Type of FU issued
system.switch_cpus.iq.FU_type_0::SimdReduceAlu            0      0.00%     62.92% # Type of FU issued
system.switch_cpus.iq.FU_type_0::SimdReduceCmp            0      0.00%     62.92% # Type of FU issued
system.switch_cpus.iq.FU_type_0::SimdFloatReduceAdd            0      0.00%     62.92% # Type of FU issued
system.switch_cpus.iq.FU_type_0::SimdFloatReduceCmp            0      0.00%     62.92% # Type of FU issued
system.switch_cpus.iq.FU_type_0::SimdAes            0      0.00%     62.92% # Type of FU issued
system.switch_cpus.iq.FU_type_0::SimdAesMix            0      0.00%     62.92% # Type of FU issued
system.switch_cpus.iq.FU_type_0::SimdSha1Hash            0      0.00%     62.92% # Type of FU issued
system.switch_cpus.iq.FU_type_0::SimdSha1Hash2            0      0.00%     62.92% # Type of FU issued
system.switch_cpus.iq.FU_type_0::SimdSha256Hash            0      0.00%     62.92% # Type of FU issued
system.switch_cpus.iq.FU_type_0::SimdSha256Hash2            0      0.00%     62.92% # Type of FU issued
system.switch_cpus.iq.FU_type_0::SimdShaSigma2            0      0.00%     62.92% # Type of FU issued
system.switch_cpus.iq.FU_type_0::SimdShaSigma3            0      0.00%     62.92% # Type of FU issued
system.switch_cpus.iq.FU_type_0::SimdPredAlu            0      0.00%     62.92% # Type of FU issued
system.switch_cpus.iq.FU_type_0::MemRead     41028879     11.65%     74.56% # Type of FU issued
system.switch_cpus.iq.FU_type_0::MemWrite      6819395      1.94%     76.50% # Type of FU issued
system.switch_cpus.iq.FU_type_0::FloatMemRead     52863583     15.00%     91.50% # Type of FU issued
system.switch_cpus.iq.FU_type_0::FloatMemWrite     29939949      8.50%    100.00% # Type of FU issued
system.switch_cpus.iq.FU_type_0::IprAccess            0      0.00%    100.00% # Type of FU issued
system.switch_cpus.iq.FU_type_0::InstPrefetch            0      0.00%    100.00% # Type of FU issued
system.switch_cpus.iq.FU_type_0::total      352326958                       # Type of FU issued
system.switch_cpus.iq.fp_alu_accesses       194102630                       # Number of floating point alu accesses
system.switch_cpus.iq.fp_inst_queue_reads    381790534                       # Number of floating instruction queue reads
system.switch_cpus.iq.fp_inst_queue_wakeup_accesses    186769080                       # Number of floating instruction queue wakeup accesses
system.switch_cpus.iq.fp_inst_queue_writes    187014437                       # Number of floating instruction queue writes
system.switch_cpus.iq.fu_busy_cnt            10096140                       # FU busy when requested
system.switch_cpus.iq.fu_busy_rate           0.028656                       # FU busy rate (busy events/executed inst)
system.switch_cpus.iq.fu_full::No_OpClass            0      0.00%      0.00% # attempts to use FU when none available
system.switch_cpus.iq.fu_full::IntAlu          212606      2.11%      2.11% # attempts to use FU when none available
system.switch_cpus.iq.fu_full::IntMult              0      0.00%      2.11% # attempts to use FU when none available
system.switch_cpus.iq.fu_full::IntDiv               0      0.00%      2.11% # attempts to use FU when none available
system.switch_cpus.iq.fu_full::FloatAdd             0      0.00%      2.11% # attempts to use FU when none available
system.switch_cpus.iq.fu_full::FloatCmp             0      0.00%      2.11% # attempts to use FU when none available
system.switch_cpus.iq.fu_full::FloatCvt             0      0.00%      2.11% # attempts to use FU when none available
system.switch_cpus.iq.fu_full::FloatMult            0      0.00%      2.11% # attempts to use FU when none available
system.switch_cpus.iq.fu_full::FloatMultAcc            0      0.00%      2.11% # attempts to use FU when none available
system.switch_cpus.iq.fu_full::FloatDiv             0      0.00%      2.11% # attempts to use FU when none available
system.switch_cpus.iq.fu_full::FloatMisc            0      0.00%      2.11% # attempts to use FU when none available
system.switch_cpus.iq.fu_full::FloatSqrt            0      0.00%      2.11% # attempts to use FU when none available
system.switch_cpus.iq.fu_full::SimdAdd              0      0.00%      2.11% # attempts to use FU when none available
system.switch_cpus.iq.fu_full::SimdAddAcc            0      0.00%      2.11% # attempts to use FU when none available
system.switch_cpus.iq.fu_full::SimdAlu            182      0.00%      2.11% # attempts to use FU when none available
system.switch_cpus.iq.fu_full::SimdCmp              0      0.00%      2.11% # attempts to use FU when none available
system.switch_cpus.iq.fu_full::SimdCvt              8      0.00%      2.11% # attempts to use FU when none available
system.switch_cpus.iq.fu_full::SimdMisc           147      0.00%      2.11% # attempts to use FU when none available
system.switch_cpus.iq.fu_full::SimdMult             0      0.00%      2.11% # attempts to use FU when none available
system.switch_cpus.iq.fu_full::SimdMultAcc            0      0.00%      2.11% # attempts to use FU when none available
system.switch_cpus.iq.fu_full::SimdShift            0      0.00%      2.11% # attempts to use FU when none available
system.switch_cpus.iq.fu_full::SimdShiftAcc            0      0.00%      2.11% # attempts to use FU when none available
system.switch_cpus.iq.fu_full::SimdDiv              0      0.00%      2.11% # attempts to use FU when none available
system.switch_cpus.iq.fu_full::SimdSqrt             0      0.00%      2.11% # attempts to use FU when none available
system.switch_cpus.iq.fu_full::SimdFloatAdd       594196      5.89%      7.99% # attempts to use FU when none available
system.switch_cpus.iq.fu_full::SimdFloatAlu            0      0.00%      7.99% # attempts to use FU when none available
system.switch_cpus.iq.fu_full::SimdFloatCmp        36950      0.37%      8.36% # attempts to use FU when none available
system.switch_cpus.iq.fu_full::SimdFloatCvt        15722      0.16%      8.52% # attempts to use FU when none available
system.switch_cpus.iq.fu_full::SimdFloatDiv            0      0.00%      8.52% # attempts to use FU when none available
system.switch_cpus.iq.fu_full::SimdFloatMisc            0      0.00%      8.52% # attempts to use FU when none available
system.switch_cpus.iq.fu_full::SimdFloatMult      1573583     15.59%     24.10% # attempts to use FU when none available
system.switch_cpus.iq.fu_full::SimdFloatMultAcc            0      0.00%     24.10% # attempts to use FU when none available
system.switch_cpus.iq.fu_full::SimdFloatSqrt            0      0.00%     24.10% # attempts to use FU when none available
system.switch_cpus.iq.fu_full::SimdReduceAdd            0      0.00%     24.10% # attempts to use FU when none available
system.switch_cpus.iq.fu_full::SimdReduceAlu            0      0.00%     24.10% # attempts to use FU when none available
system.switch_cpus.iq.fu_full::SimdReduceCmp            0      0.00%     24.10% # attempts to use FU when none available
system.switch_cpus.iq.fu_full::SimdFloatReduceAdd            0      0.00%     24.10% # attempts to use FU when none available
system.switch_cpus.iq.fu_full::SimdFloatReduceCmp            0      0.00%     24.10% # attempts to use FU when none available
system.switch_cpus.iq.fu_full::SimdAes              0      0.00%     24.10% # attempts to use FU when none available
system.switch_cpus.iq.fu_full::SimdAesMix            0      0.00%     24.10% # attempts to use FU when none available
system.switch_cpus.iq.fu_full::SimdSha1Hash            0      0.00%     24.10% # attempts to use FU when none available
system.switch_cpus.iq.fu_full::SimdSha1Hash2            0      0.00%     24.10% # attempts to use FU when none available
system.switch_cpus.iq.fu_full::SimdSha256Hash            0      0.00%     24.10% # attempts to use FU when none available
system.switch_cpus.iq.fu_full::SimdSha256Hash2            0      0.00%     24.10% # attempts to use FU when none available
system.switch_cpus.iq.fu_full::SimdShaSigma2            0      0.00%     24.10% # attempts to use FU when none available
system.switch_cpus.iq.fu_full::SimdShaSigma3            0      0.00%     24.10% # attempts to use FU when none available
system.switch_cpus.iq.fu_full::SimdPredAlu            0      0.00%     24.10% # attempts to use FU when none available
system.switch_cpus.iq.fu_full::MemRead        3412269     33.80%     57.90% # attempts to use FU when none available
system.switch_cpus.iq.fu_full::MemWrite         73691      0.73%     58.63% # attempts to use FU when none available
system.switch_cpus.iq.fu_full::FloatMemRead      4169799     41.30%     99.93% # attempts to use FU when none available
system.switch_cpus.iq.fu_full::FloatMemWrite         6987      0.07%    100.00% # attempts to use FU when none available
system.switch_cpus.iq.fu_full::IprAccess            0      0.00%    100.00% # attempts to use FU when none available
system.switch_cpus.iq.fu_full::InstPrefetch            0      0.00%    100.00% # attempts to use FU when none available
system.switch_cpus.iq.int_alu_accesses      168314661                       # Number of integer alu accesses
system.switch_cpus.iq.int_inst_queue_reads   1015610341                       # Number of integer instruction queue reads
system.switch_cpus.iq.int_inst_queue_wakeup_accesses    163220235                       # Number of integer instruction queue wakeup accesses
system.switch_cpus.iq.int_inst_queue_writes    163736720                       # Number of integer instruction queue writes
system.switch_cpus.iq.iqInstsAdded          350252934                       # Number of instructions added to the IQ (excludes non-spec)
system.switch_cpus.iq.iqInstsIssued         352326958                       # Number of instructions issued
system.switch_cpus.iq.iqNonSpecInstsAdded           27                       # Number of non-speculative instructions added to the IQ
system.switch_cpus.iq.iqSquashedInstsExamined       495952                       # Number of squashed instructions iterated over during squash; mainly for profiling
system.switch_cpus.iq.iqSquashedInstsIssued        10303                       # Number of squashed instructions issued
system.switch_cpus.iq.iqSquashedNonSpecRemoved           27                       # Number of squashed non-spec instructions that were removed
system.switch_cpus.iq.iqSquashedOperandsExamined       808116                       # Number of squashed operands that are examined and possibly removed from graph
system.switch_cpus.iq.issued_per_cycle::samples    682640516                       # Number of insts issued each cycle
system.switch_cpus.iq.issued_per_cycle::mean     0.516124                       # Number of insts issued each cycle
system.switch_cpus.iq.issued_per_cycle::stdev     1.424961                       # Number of insts issued each cycle
system.switch_cpus.iq.issued_per_cycle::underflows            0      0.00%      0.00% # Number of insts issued each cycle
system.switch_cpus.iq.issued_per_cycle::0    570838918     83.62%     83.62% # Number of insts issued each cycle
system.switch_cpus.iq.issued_per_cycle::1     31953791      4.68%     88.30% # Number of insts issued each cycle
system.switch_cpus.iq.issued_per_cycle::2     20509845      3.00%     91.31% # Number of insts issued each cycle
system.switch_cpus.iq.issued_per_cycle::3     15536887      2.28%     93.58% # Number of insts issued each cycle
system.switch_cpus.iq.issued_per_cycle::4     16590641      2.43%     96.01% # Number of insts issued each cycle
system.switch_cpus.iq.issued_per_cycle::5     10397008      1.52%     97.54% # Number of insts issued each cycle
system.switch_cpus.iq.issued_per_cycle::6      7188734      1.05%     98.59% # Number of insts issued each cycle
system.switch_cpus.iq.issued_per_cycle::7      5734728      0.84%     99.43% # Number of insts issued each cycle
system.switch_cpus.iq.issued_per_cycle::8      3889964      0.57%    100.00% # Number of insts issued each cycle
system.switch_cpus.iq.issued_per_cycle::overflows            0      0.00%    100.00% # Number of insts issued each cycle
system.switch_cpus.iq.issued_per_cycle::min_value            0                       # Number of insts issued each cycle
system.switch_cpus.iq.issued_per_cycle::max_value            8                       # Number of insts issued each cycle
system.switch_cpus.iq.issued_per_cycle::total    682640516                       # Number of insts issued each cycle
system.switch_cpus.iq.rate                   0.515919                       # Inst issue rate
system.switch_cpus.iq.vec_alu_accesses              0                       # Number of vector alu accesses
system.switch_cpus.iq.vec_inst_queue_reads            0                       # Number of vector instruction queue reads
system.switch_cpus.iq.vec_inst_queue_wakeup_accesses            0                       # Number of vector instruction queue wakeup accesses
system.switch_cpus.iq.vec_inst_queue_writes            0                       # Number of vector instruction queue writes
system.switch_cpus.memDep0.conflictingLoads      6744537                       # Number of conflicting loads.
system.switch_cpus.memDep0.conflictingStores      1335449                       # Number of conflicting stores.
system.switch_cpus.memDep0.insertedLoads     91697433                       # Number of loads inserted to the mem dependence unit.
system.switch_cpus.memDep0.insertedStores     36802196                       # Number of stores inserted to the mem dependence unit.
system.switch_cpus.misc_regfile_reads       179709908                       # number of misc regfile reads
system.switch_cpus.misc_regfile_writes              1                       # number of misc regfile writes
system.switch_cpus.numCycles                682911239                       # number of cpu cycles simulated
system.switch_cpus.numWorkItemsCompleted            0                       # number of work items this cpu completed
system.switch_cpus.numWorkItemsStarted              0                       # number of work items this cpu started
system.switch_cpus.timesIdled                    1284                       # Number of times that the entire CPU went into an idle state and unscheduled itself
system.clk_domain.clock                           333                       # Clock period in ticks
system.cpu.dcache.demand_hits::.cpu.data            7                       # number of demand (read+write) hits
system.cpu.dcache.demand_hits::.switch_cpus.data     81591825                       # number of demand (read+write) hits
system.cpu.dcache.demand_hits::total         81591832                       # number of demand (read+write) hits
system.cpu.dcache.overall_hits::.cpu.data            7                       # number of overall hits
system.cpu.dcache.overall_hits::.switch_cpus.data     81591884                       # number of overall hits
system.cpu.dcache.overall_hits::total        81591891                       # number of overall hits
system.cpu.dcache.demand_misses::.cpu.data            3                       # number of demand (read+write) misses
system.cpu.dcache.demand_misses::.switch_cpus.data     29727886                       # number of demand (read+write) misses
system.cpu.dcache.demand_misses::total       29727889                       # number of demand (read+write) misses
system.cpu.dcache.overall_misses::.cpu.data            3                       # number of overall misses
system.cpu.dcache.overall_misses::.switch_cpus.data     30330586                       # number of overall misses
system.cpu.dcache.overall_misses::total      30330589                       # number of overall misses
system.cpu.dcache.demand_miss_latency::.switch_cpus.data 859205705959                       # number of demand (read+write) miss cycles
system.cpu.dcache.demand_miss_latency::total 859205705959                       # number of demand (read+write) miss cycles
system.cpu.dcache.overall_miss_latency::.switch_cpus.data 859205705959                       # number of overall miss cycles
system.cpu.dcache.overall_miss_latency::total 859205705959                       # number of overall miss cycles
system.cpu.dcache.demand_accesses::.cpu.data           10                       # number of demand (read+write) accesses
system.cpu.dcache.demand_accesses::.switch_cpus.data    111319711                       # number of demand (read+write) accesses
system.cpu.dcache.demand_accesses::total    111319721                       # number of demand (read+write) accesses
system.cpu.dcache.overall_accesses::.cpu.data           10                       # number of overall (read+write) accesses
system.cpu.dcache.overall_accesses::.switch_cpus.data    111922470                       # number of overall (read+write) accesses
system.cpu.dcache.overall_accesses::total    111922480                       # number of overall (read+write) accesses
system.cpu.dcache.demand_miss_rate::.cpu.data     0.300000                       # miss rate for demand accesses
system.cpu.dcache.demand_miss_rate::.switch_cpus.data     0.267050                       # miss rate for demand accesses
system.cpu.dcache.demand_miss_rate::total     0.267050                       # miss rate for demand accesses
system.cpu.dcache.overall_miss_rate::.cpu.data     0.300000                       # miss rate for overall accesses
system.cpu.dcache.overall_miss_rate::.switch_cpus.data     0.270996                       # miss rate for overall accesses
system.cpu.dcache.overall_miss_rate::total     0.270996                       # miss rate for overall accesses
system.cpu.dcache.demand_avg_miss_latency::.switch_cpus.data 28902.347983                       # average overall miss latency
system.cpu.dcache.demand_avg_miss_latency::total 28902.345066                       # average overall miss latency
system.cpu.dcache.overall_avg_miss_latency::.switch_cpus.data 28328.028544                       # average overall miss latency
system.cpu.dcache.overall_avg_miss_latency::total 28328.025742                       # average overall miss latency
system.cpu.dcache.blocked_cycles::no_mshrs     28679197                       # number of cycles access was blocked
system.cpu.dcache.blocked_cycles::no_targets         1575                       # number of cycles access was blocked
system.cpu.dcache.blocked::no_mshrs            713181                       # number of cycles access was blocked
system.cpu.dcache.blocked::no_targets               7                       # number of cycles access was blocked
system.cpu.dcache.avg_blocked_cycles::no_mshrs    40.213069                       # average number of cycles each access was blocked
system.cpu.dcache.avg_blocked_cycles::no_targets          225                       # average number of cycles each access was blocked
system.cpu.dcache.writebacks::.writebacks     25072597                       # number of writebacks
system.cpu.dcache.writebacks::total          25072597                       # number of writebacks
system.cpu.dcache.demand_mshr_hits::.switch_cpus.data      5242680                       # number of demand (read+write) MSHR hits
system.cpu.dcache.demand_mshr_hits::total      5242680                       # number of demand (read+write) MSHR hits
system.cpu.dcache.overall_mshr_hits::.switch_cpus.data      5242680                       # number of overall MSHR hits
system.cpu.dcache.overall_mshr_hits::total      5242680                       # number of overall MSHR hits
system.cpu.dcache.demand_mshr_misses::.switch_cpus.data     24485206                       # number of demand (read+write) MSHR misses
system.cpu.dcache.demand_mshr_misses::total     24485206                       # number of demand (read+write) MSHR misses
system.cpu.dcache.overall_mshr_misses::.switch_cpus.data     25087892                       # number of overall MSHR misses
system.cpu.dcache.overall_mshr_misses::total     25087892                       # number of overall MSHR misses
system.cpu.dcache.demand_mshr_miss_latency::.switch_cpus.data 633031800931                       # number of demand (read+write) MSHR miss cycles
system.cpu.dcache.demand_mshr_miss_latency::total 633031800931                       # number of demand (read+write) MSHR miss cycles
system.cpu.dcache.overall_mshr_miss_latency::.switch_cpus.data 690257592523                       # number of overall MSHR miss cycles
system.cpu.dcache.overall_mshr_miss_latency::total 690257592523                       # number of overall MSHR miss cycles
system.cpu.dcache.demand_mshr_miss_rate::.switch_cpus.data     0.219954                       # mshr miss rate for demand accesses
system.cpu.dcache.demand_mshr_miss_rate::total     0.219954                       # mshr miss rate for demand accesses
system.cpu.dcache.overall_mshr_miss_rate::.switch_cpus.data     0.224154                       # mshr miss rate for overall accesses
system.cpu.dcache.overall_mshr_miss_rate::total     0.224154                       # mshr miss rate for overall accesses
system.cpu.dcache.demand_avg_mshr_miss_latency::.switch_cpus.data 25853.644071                       # average overall mshr miss latency
system.cpu.dcache.demand_avg_mshr_miss_latency::total 25853.644071                       # average overall mshr miss latency
system.cpu.dcache.overall_avg_mshr_miss_latency::.switch_cpus.data 27513.574776                       # average overall mshr miss latency
system.cpu.dcache.overall_avg_mshr_miss_latency::total 27513.574776                       # average overall mshr miss latency
system.cpu.dcache.replacements               25072597                       # number of replacements
system.cpu.dcache.ReadReq_hits::.cpu.data            5                       # number of ReadReq hits
system.cpu.dcache.ReadReq_hits::.switch_cpus.data     56025183                       # number of ReadReq hits
system.cpu.dcache.ReadReq_hits::total        56025188                       # number of ReadReq hits
system.cpu.dcache.ReadReq_misses::.cpu.data            3                       # number of ReadReq misses
system.cpu.dcache.ReadReq_misses::.switch_cpus.data     18546014                       # number of ReadReq misses
system.cpu.dcache.ReadReq_misses::total      18546017                       # number of ReadReq misses
system.cpu.dcache.ReadReq_miss_latency::.switch_cpus.data 682912594809                       # number of ReadReq miss cycles
system.cpu.dcache.ReadReq_miss_latency::total 682912594809                       # number of ReadReq miss cycles
system.cpu.dcache.ReadReq_accesses::.cpu.data            8                       # number of ReadReq accesses(hits+misses)
system.cpu.dcache.ReadReq_accesses::.switch_cpus.data     74571197                       # number of ReadReq accesses(hits+misses)
system.cpu.dcache.ReadReq_accesses::total     74571205                       # number of ReadReq accesses(hits+misses)
system.cpu.dcache.ReadReq_miss_rate::.cpu.data     0.375000                       # miss rate for ReadReq accesses
system.cpu.dcache.ReadReq_miss_rate::.switch_cpus.data     0.248702                       # miss rate for ReadReq accesses
system.cpu.dcache.ReadReq_miss_rate::total     0.248702                       # miss rate for ReadReq accesses
system.cpu.dcache.ReadReq_avg_miss_latency::.switch_cpus.data 36822.607532                       # average ReadReq miss latency
system.cpu.dcache.ReadReq_avg_miss_latency::total 36822.601576                       # average ReadReq miss latency
system.cpu.dcache.ReadReq_mshr_hits::.switch_cpus.data      4751106                       # number of ReadReq MSHR hits
system.cpu.dcache.ReadReq_mshr_hits::total      4751106                       # number of ReadReq MSHR hits
system.cpu.dcache.ReadReq_mshr_misses::.switch_cpus.data     13794908                       # number of ReadReq MSHR misses
system.cpu.dcache.ReadReq_mshr_misses::total     13794908                       # number of ReadReq MSHR misses
system.cpu.dcache.ReadReq_mshr_miss_latency::.switch_cpus.data 462241234395                       # number of ReadReq MSHR miss cycles
system.cpu.dcache.ReadReq_mshr_miss_latency::total 462241234395                       # number of ReadReq MSHR miss cycles
system.cpu.dcache.ReadReq_mshr_miss_rate::.switch_cpus.data     0.184990                       # mshr miss rate for ReadReq accesses
system.cpu.dcache.ReadReq_mshr_miss_rate::total     0.184990                       # mshr miss rate for ReadReq accesses
system.cpu.dcache.ReadReq_avg_mshr_miss_latency::.switch_cpus.data 33508.105628                       # average ReadReq mshr miss latency
system.cpu.dcache.ReadReq_avg_mshr_miss_latency::total 33508.105628                       # average ReadReq mshr miss latency
system.cpu.dcache.WriteReq_hits::.cpu.data            2                       # number of WriteReq hits
system.cpu.dcache.WriteReq_hits::.switch_cpus.data     25566642                       # number of WriteReq hits
system.cpu.dcache.WriteReq_hits::total       25566644                       # number of WriteReq hits
system.cpu.dcache.WriteReq_misses::.switch_cpus.data     11181872                       # number of WriteReq misses
system.cpu.dcache.WriteReq_misses::total     11181872                       # number of WriteReq misses
system.cpu.dcache.WriteReq_miss_latency::.switch_cpus.data 176293111150                       # number of WriteReq miss cycles
system.cpu.dcache.WriteReq_miss_latency::total 176293111150                       # number of WriteReq miss cycles
system.cpu.dcache.WriteReq_accesses::.cpu.data            2                       # number of WriteReq accesses(hits+misses)
system.cpu.dcache.WriteReq_accesses::.switch_cpus.data     36748514                       # number of WriteReq accesses(hits+misses)
system.cpu.dcache.WriteReq_accesses::total     36748516                       # number of WriteReq accesses(hits+misses)
system.cpu.dcache.WriteReq_miss_rate::.switch_cpus.data     0.304281                       # miss rate for WriteReq accesses
system.cpu.dcache.WriteReq_miss_rate::total     0.304281                       # miss rate for WriteReq accesses
system.cpu.dcache.WriteReq_avg_miss_latency::.switch_cpus.data 15765.974709                       # average WriteReq miss latency
system.cpu.dcache.WriteReq_avg_miss_latency::total 15765.974709                       # average WriteReq miss latency
system.cpu.dcache.WriteReq_mshr_hits::.switch_cpus.data       491574                       # number of WriteReq MSHR hits
system.cpu.dcache.WriteReq_mshr_hits::total       491574                       # number of WriteReq MSHR hits
system.cpu.dcache.WriteReq_mshr_misses::.switch_cpus.data     10690298                       # number of WriteReq MSHR misses
system.cpu.dcache.WriteReq_mshr_misses::total     10690298                       # number of WriteReq MSHR misses
system.cpu.dcache.WriteReq_mshr_miss_latency::.switch_cpus.data 170790566536                       # number of WriteReq MSHR miss cycles
system.cpu.dcache.WriteReq_mshr_miss_latency::total 170790566536                       # number of WriteReq MSHR miss cycles
system.cpu.dcache.WriteReq_mshr_miss_rate::.switch_cpus.data     0.290904                       # mshr miss rate for WriteReq accesses
system.cpu.dcache.WriteReq_mshr_miss_rate::total     0.290904                       # mshr miss rate for WriteReq accesses
system.cpu.dcache.WriteReq_avg_mshr_miss_latency::.switch_cpus.data 15976.221293                       # average WriteReq mshr miss latency
system.cpu.dcache.WriteReq_avg_mshr_miss_latency::total 15976.221293                       # average WriteReq mshr miss latency
system.cpu.dcache.SoftPFReq_hits::.switch_cpus.data           59                       # number of SoftPFReq hits
system.cpu.dcache.SoftPFReq_hits::total            59                       # number of SoftPFReq hits
system.cpu.dcache.SoftPFReq_misses::.switch_cpus.data       602700                       # number of SoftPFReq misses
system.cpu.dcache.SoftPFReq_misses::total       602700                       # number of SoftPFReq misses
system.cpu.dcache.SoftPFReq_accesses::.switch_cpus.data       602759                       # number of SoftPFReq accesses(hits+misses)
system.cpu.dcache.SoftPFReq_accesses::total       602759                       # number of SoftPFReq accesses(hits+misses)
system.cpu.dcache.SoftPFReq_miss_rate::.switch_cpus.data     0.999902                       # miss rate for SoftPFReq accesses
system.cpu.dcache.SoftPFReq_miss_rate::total     0.999902                       # miss rate for SoftPFReq accesses
system.cpu.dcache.SoftPFReq_mshr_misses::.switch_cpus.data       602686                       # number of SoftPFReq MSHR misses
system.cpu.dcache.SoftPFReq_mshr_misses::total       602686                       # number of SoftPFReq MSHR misses
system.cpu.dcache.SoftPFReq_mshr_miss_latency::.switch_cpus.data  57225791592                       # number of SoftPFReq MSHR miss cycles
system.cpu.dcache.SoftPFReq_mshr_miss_latency::total  57225791592                       # number of SoftPFReq MSHR miss cycles
system.cpu.dcache.SoftPFReq_mshr_miss_rate::.switch_cpus.data     0.999879                       # mshr miss rate for SoftPFReq accesses
system.cpu.dcache.SoftPFReq_mshr_miss_rate::total     0.999879                       # mshr miss rate for SoftPFReq accesses
system.cpu.dcache.SoftPFReq_avg_mshr_miss_latency::.switch_cpus.data 94951.254205                       # average SoftPFReq mshr miss latency
system.cpu.dcache.SoftPFReq_avg_mshr_miss_latency::total 94951.254205                       # average SoftPFReq mshr miss latency
system.cpu.dcache.power_state.pwrStateResidencyTicks::UNDEFINED 16086822272136                       # Cumulative time (in ticks) in various power states
system.cpu.dcache.tags.tagsinuse           511.990671                       # Cycle average of tags in use
system.cpu.dcache.tags.total_refs           106679797                       # Total number of references to valid blocks.
system.cpu.dcache.tags.sampled_refs          25073109                       # Sample count of references to valid blocks.
system.cpu.dcache.tags.avg_refs              4.254749                       # Average number of references to valid blocks.
system.cpu.dcache.tags.warmup_cycle      15859412820225                       # Cycle when the warmup percentage was hit.
system.cpu.dcache.tags.occ_blocks::.cpu.data     0.000105                       # Average occupied blocks per requestor
system.cpu.dcache.tags.occ_blocks::.switch_cpus.data   511.990566                       # Average occupied blocks per requestor
system.cpu.dcache.tags.occ_percent::.cpu.data     0.000000                       # Average percentage of cache occupancy
system.cpu.dcache.tags.occ_percent::.switch_cpus.data     0.999982                       # Average percentage of cache occupancy
system.cpu.dcache.tags.occ_percent::total     0.999982                       # Average percentage of cache occupancy
system.cpu.dcache.tags.occ_task_id_blocks::1024          512                       # Occupied blocks per task id
system.cpu.dcache.tags.age_task_id_blocks_1024::0           40                       # Occupied blocks per task id
system.cpu.dcache.tags.age_task_id_blocks_1024::1          281                       # Occupied blocks per task id
system.cpu.dcache.tags.age_task_id_blocks_1024::2          191                       # Occupied blocks per task id
system.cpu.dcache.tags.occ_task_id_percent::1024            1                       # Percentage of cache occupancy per task id
system.cpu.dcache.tags.tag_accesses         920452949                       # Number of tag accesses
system.cpu.dcache.tags.data_accesses        920452949                       # Number of data accesses
system.cpu.dcache.tags.power_state.pwrStateResidencyTicks::UNDEFINED 16086822272136                       # Cumulative time (in ticks) in various power states
system.cpu.dtb.rdAccesses                           8                       # TLB accesses on read requests
system.cpu.dtb.wrAccesses                           2                       # TLB accesses on write requests
system.cpu.dtb.rdMisses                             0                       # TLB misses on read requests
system.cpu.dtb.wrMisses                             0                       # TLB misses on write requests
system.cpu.dtb.walker.power_state.pwrStateResidencyTicks::UNDEFINED 16086822272136                       # Cumulative time (in ticks) in various power states
system.cpu.icache.demand_hits::.cpu.inst           27                       # number of demand (read+write) hits
system.cpu.icache.demand_hits::.switch_cpus.inst     30998145                       # number of demand (read+write) hits
system.cpu.icache.demand_hits::total         30998172                       # number of demand (read+write) hits
system.cpu.icache.overall_hits::.cpu.inst           27                       # number of overall hits
system.cpu.icache.overall_hits::.switch_cpus.inst     30998145                       # number of overall hits
system.cpu.icache.overall_hits::total        30998172                       # number of overall hits
system.cpu.icache.demand_misses::.cpu.inst            3                       # number of demand (read+write) misses
system.cpu.icache.demand_misses::.switch_cpus.inst         2627                       # number of demand (read+write) misses
system.cpu.icache.demand_misses::total           2630                       # number of demand (read+write) misses
system.cpu.icache.overall_misses::.cpu.inst            3                       # number of overall misses
system.cpu.icache.overall_misses::.switch_cpus.inst         2627                       # number of overall misses
system.cpu.icache.overall_misses::total          2630                       # number of overall misses
system.cpu.icache.demand_miss_latency::.switch_cpus.inst    221862582                       # number of demand (read+write) miss cycles
system.cpu.icache.demand_miss_latency::total    221862582                       # number of demand (read+write) miss cycles
system.cpu.icache.overall_miss_latency::.switch_cpus.inst    221862582                       # number of overall miss cycles
system.cpu.icache.overall_miss_latency::total    221862582                       # number of overall miss cycles
system.cpu.icache.demand_accesses::.cpu.inst           30                       # number of demand (read+write) accesses
system.cpu.icache.demand_accesses::.switch_cpus.inst     31000772                       # number of demand (read+write) accesses
system.cpu.icache.demand_accesses::total     31000802                       # number of demand (read+write) accesses
system.cpu.icache.overall_accesses::.cpu.inst           30                       # number of overall (read+write) accesses
system.cpu.icache.overall_accesses::.switch_cpus.inst     31000772                       # number of overall (read+write) accesses
system.cpu.icache.overall_accesses::total     31000802                       # number of overall (read+write) accesses
system.cpu.icache.demand_miss_rate::.cpu.inst     0.100000                       # miss rate for demand accesses
system.cpu.icache.demand_miss_rate::.switch_cpus.inst     0.000085                       # miss rate for demand accesses
system.cpu.icache.demand_miss_rate::total     0.000085                       # miss rate for demand accesses
system.cpu.icache.overall_miss_rate::.cpu.inst     0.100000                       # miss rate for overall accesses
system.cpu.icache.overall_miss_rate::.switch_cpus.inst     0.000085                       # miss rate for overall accesses
system.cpu.icache.overall_miss_rate::total     0.000085                       # miss rate for overall accesses
system.cpu.icache.demand_avg_miss_latency::.switch_cpus.inst 84454.732394                       # average overall miss latency
system.cpu.icache.demand_avg_miss_latency::total 84358.396198                       # average overall miss latency
system.cpu.icache.overall_avg_miss_latency::.switch_cpus.inst 84454.732394                       # average overall miss latency
system.cpu.icache.overall_avg_miss_latency::total 84358.396198                       # average overall miss latency
system.cpu.icache.blocked_cycles::no_mshrs            0                       # number of cycles access was blocked
system.cpu.icache.blocked_cycles::no_targets            0                       # number of cycles access was blocked
system.cpu.icache.blocked::no_mshrs                 0                       # number of cycles access was blocked
system.cpu.icache.blocked::no_targets               0                       # number of cycles access was blocked
system.cpu.icache.avg_blocked_cycles::no_mshrs          nan                       # average number of cycles each access was blocked
system.cpu.icache.avg_blocked_cycles::no_targets          nan                       # average number of cycles each access was blocked
system.cpu.icache.writebacks::.writebacks         1145                       # number of writebacks
system.cpu.icache.writebacks::total              1145                       # number of writebacks
system.cpu.icache.demand_mshr_hits::.switch_cpus.inst          973                       # number of demand (read+write) MSHR hits
system.cpu.icache.demand_mshr_hits::total          973                       # number of demand (read+write) MSHR hits
system.cpu.icache.overall_mshr_hits::.switch_cpus.inst          973                       # number of overall MSHR hits
system.cpu.icache.overall_mshr_hits::total          973                       # number of overall MSHR hits
system.cpu.icache.demand_mshr_misses::.switch_cpus.inst         1654                       # number of demand (read+write) MSHR misses
system.cpu.icache.demand_mshr_misses::total         1654                       # number of demand (read+write) MSHR misses
system.cpu.icache.overall_mshr_misses::.switch_cpus.inst         1654                       # number of overall MSHR misses
system.cpu.icache.overall_mshr_misses::total         1654                       # number of overall MSHR misses
system.cpu.icache.demand_mshr_miss_latency::.switch_cpus.inst    138868659                       # number of demand (read+write) MSHR miss cycles
system.cpu.icache.demand_mshr_miss_latency::total    138868659                       # number of demand (read+write) MSHR miss cycles
system.cpu.icache.overall_mshr_miss_latency::.switch_cpus.inst    138868659                       # number of overall MSHR miss cycles
system.cpu.icache.overall_mshr_miss_latency::total    138868659                       # number of overall MSHR miss cycles
system.cpu.icache.demand_mshr_miss_rate::.switch_cpus.inst     0.000053                       # mshr miss rate for demand accesses
system.cpu.icache.demand_mshr_miss_rate::total     0.000053                       # mshr miss rate for demand accesses
system.cpu.icache.overall_mshr_miss_rate::.switch_cpus.inst     0.000053                       # mshr miss rate for overall accesses
system.cpu.icache.overall_mshr_miss_rate::total     0.000053                       # mshr miss rate for overall accesses
system.cpu.icache.demand_avg_mshr_miss_latency::.switch_cpus.inst 83959.285973                       # average overall mshr miss latency
system.cpu.icache.demand_avg_mshr_miss_latency::total 83959.285973                       # average overall mshr miss latency
system.cpu.icache.overall_avg_mshr_miss_latency::.switch_cpus.inst 83959.285973                       # average overall mshr miss latency
system.cpu.icache.overall_avg_mshr_miss_latency::total 83959.285973                       # average overall mshr miss latency
system.cpu.icache.replacements                   1145                       # number of replacements
system.cpu.icache.ReadReq_hits::.cpu.inst           27                       # number of ReadReq hits
system.cpu.icache.ReadReq_hits::.switch_cpus.inst     30998145                       # number of ReadReq hits
system.cpu.icache.ReadReq_hits::total        30998172                       # number of ReadReq hits
system.cpu.icache.ReadReq_misses::.cpu.inst            3                       # number of ReadReq misses
system.cpu.icache.ReadReq_misses::.switch_cpus.inst         2627                       # number of ReadReq misses
system.cpu.icache.ReadReq_misses::total          2630                       # number of ReadReq misses
system.cpu.icache.ReadReq_miss_latency::.switch_cpus.inst    221862582                       # number of ReadReq miss cycles
system.cpu.icache.ReadReq_miss_latency::total    221862582                       # number of ReadReq miss cycles
system.cpu.icache.ReadReq_accesses::.cpu.inst           30                       # number of ReadReq accesses(hits+misses)
system.cpu.icache.ReadReq_accesses::.switch_cpus.inst     31000772                       # number of ReadReq accesses(hits+misses)
system.cpu.icache.ReadReq_accesses::total     31000802                       # number of ReadReq accesses(hits+misses)
system.cpu.icache.ReadReq_miss_rate::.cpu.inst     0.100000                       # miss rate for ReadReq accesses
system.cpu.icache.ReadReq_miss_rate::.switch_cpus.inst     0.000085                       # miss rate for ReadReq accesses
system.cpu.icache.ReadReq_miss_rate::total     0.000085                       # miss rate for ReadReq accesses
system.cpu.icache.ReadReq_avg_miss_latency::.switch_cpus.inst 84454.732394                       # average ReadReq miss latency
system.cpu.icache.ReadReq_avg_miss_latency::total 84358.396198                       # average ReadReq miss latency
system.cpu.icache.ReadReq_mshr_hits::.switch_cpus.inst          973                       # number of ReadReq MSHR hits
system.cpu.icache.ReadReq_mshr_hits::total          973                       # number of ReadReq MSHR hits
system.cpu.icache.ReadReq_mshr_misses::.switch_cpus.inst         1654                       # number of ReadReq MSHR misses
system.cpu.icache.ReadReq_mshr_misses::total         1654                       # number of ReadReq MSHR misses
system.cpu.icache.ReadReq_mshr_miss_latency::.switch_cpus.inst    138868659                       # number of ReadReq MSHR miss cycles
system.cpu.icache.ReadReq_mshr_miss_latency::total    138868659                       # number of ReadReq MSHR miss cycles
system.cpu.icache.ReadReq_mshr_miss_rate::.switch_cpus.inst     0.000053                       # mshr miss rate for ReadReq accesses
system.cpu.icache.ReadReq_mshr_miss_rate::total     0.000053                       # mshr miss rate for ReadReq accesses
system.cpu.icache.ReadReq_avg_mshr_miss_latency::.switch_cpus.inst 83959.285973                       # average ReadReq mshr miss latency
system.cpu.icache.ReadReq_avg_mshr_miss_latency::total 83959.285973                       # average ReadReq mshr miss latency
system.cpu.icache.power_state.pwrStateResidencyTicks::UNDEFINED 16086822272136                       # Cumulative time (in ticks) in various power states
system.cpu.icache.tags.tagsinuse           483.691857                       # Cycle average of tags in use
system.cpu.icache.tags.total_refs            30999829                       # Total number of references to valid blocks.
system.cpu.icache.tags.sampled_refs              1657                       # Sample count of references to valid blocks.
system.cpu.icache.tags.avg_refs          18708.406156                       # Average number of references to valid blocks.
system.cpu.icache.tags.warmup_cycle      15859412819559                       # Cycle when the warmup percentage was hit.
system.cpu.icache.tags.occ_blocks::.cpu.inst     0.543081                       # Average occupied blocks per requestor
system.cpu.icache.tags.occ_blocks::.switch_cpus.inst   483.148776                       # Average occupied blocks per requestor
system.cpu.icache.tags.occ_percent::.cpu.inst     0.001061                       # Average percentage of cache occupancy
system.cpu.icache.tags.occ_percent::.switch_cpus.inst     0.943650                       # Average percentage of cache occupancy
system.cpu.icache.tags.occ_percent::total     0.944711                       # Average percentage of cache occupancy
system.cpu.icache.tags.occ_task_id_blocks::1024          512                       # Occupied blocks per task id
system.cpu.icache.tags.age_task_id_blocks_1024::4          512                       # Occupied blocks per task id
system.cpu.icache.tags.occ_task_id_percent::1024            1                       # Percentage of cache occupancy per task id
system.cpu.icache.tags.tag_accesses         248008073                       # Number of tag accesses
system.cpu.icache.tags.data_accesses        248008073                       # Number of data accesses
system.cpu.icache.tags.power_state.pwrStateResidencyTicks::UNDEFINED 16086822272136                       # Cumulative time (in ticks) in various power states
system.cpu.interrupts.clk_domain.clock           5328                       # Clock period in ticks
system.cpu.itb.rdAccesses                           0                       # TLB accesses on read requests
system.cpu.itb.wrAccesses                          30                       # TLB accesses on write requests
system.cpu.itb.rdMisses                             0                       # TLB misses on read requests
system.cpu.itb.wrMisses                             0                       # TLB misses on write requests
system.cpu.itb.walker.power_state.pwrStateResidencyTicks::UNDEFINED 16086822272136                       # Cumulative time (in ticks) in various power states
system.cpu.l2bus.trans_dist::ReadResp        14358274                       # Transaction distribution
system.cpu.l2bus.trans_dist::WritebackDirty     14178760                       # Transaction distribution
system.cpu.l2bus.trans_dist::WritebackClean     15045723                       # Transaction distribution
system.cpu.l2bus.trans_dist::UpgradeReq         14786                       # Transaction distribution
system.cpu.l2bus.trans_dist::UpgradeResp        14786                       # Transaction distribution
system.cpu.l2bus.trans_dist::ReadExReq       10716493                       # Transaction distribution
system.cpu.l2bus.trans_dist::ReadExResp      10716492                       # Transaction distribution
system.cpu.l2bus.trans_dist::ReadSharedReq     14358274                       # Transaction distribution
system.cpu.l2bus.pkt_count_system.cpu.icache.mem_side_port::system.cpu.l2cache.cpu_side_port         4459                       # Packet count per connected requestor and responder (bytes)
system.cpu.l2bus.pkt_count_system.cpu.dcache.mem_side_port::system.cpu.l2cache.cpu_side_port     75248388                       # Packet count per connected requestor and responder (bytes)
system.cpu.l2bus.pkt_count::total            75252847                       # Packet count per connected requestor and responder (bytes)
system.cpu.l2bus.pkt_size_system.cpu.icache.mem_side_port::system.cpu.l2cache.cpu_side_port       179328                       # Cumulative packet size per connected requestor and responder (bytes)
system.cpu.l2bus.pkt_size_system.cpu.dcache.mem_side_port::system.cpu.l2cache.cpu_side_port   3209325184                       # Cumulative packet size per connected requestor and responder (bytes)
system.cpu.l2bus.pkt_size::total           3209504512                       # Cumulative packet size per connected requestor and responder (bytes)
system.cpu.l2bus.snoops                       4150741                       # Total snoops (count)
system.cpu.l2bus.snoopTraffic               265647424                       # Total snoop traffic (bytes)
system.cpu.l2bus.snoop_fanout::samples       29240294                       # Request fanout histogram
system.cpu.l2bus.snoop_fanout::mean          0.000044                       # Request fanout histogram
system.cpu.l2bus.snoop_fanout::stdev         0.006668                       # Request fanout histogram
system.cpu.l2bus.snoop_fanout::underflows            0      0.00%      0.00% # Request fanout histogram
system.cpu.l2bus.snoop_fanout::0             29238994    100.00%    100.00% # Request fanout histogram
system.cpu.l2bus.snoop_fanout::1                 1300      0.00%    100.00% # Request fanout histogram
system.cpu.l2bus.snoop_fanout::2                    0      0.00%    100.00% # Request fanout histogram
system.cpu.l2bus.snoop_fanout::3                    0      0.00%    100.00% # Request fanout histogram
system.cpu.l2bus.snoop_fanout::overflows            0      0.00%    100.00% # Request fanout histogram
system.cpu.l2bus.snoop_fanout::min_value            0                       # Request fanout histogram
system.cpu.l2bus.snoop_fanout::max_value            1                       # Request fanout histogram
system.cpu.l2bus.snoop_fanout::total         29240294                       # Request fanout histogram
system.cpu.l2bus.power_state.pwrStateResidencyTicks::UNDEFINED 16086822272136                       # Cumulative time (in ticks) in various power states
system.cpu.l2bus.reqLayer0.occupancy      33403487409                       # Layer occupancy (ticks)
system.cpu.l2bus.reqLayer0.utilization           14.7                       # Layer utilization (%)
system.cpu.l2bus.respLayer0.occupancy         1652678                       # Layer occupancy (ticks)
system.cpu.l2bus.respLayer0.utilization           0.0                       # Layer utilization (%)
system.cpu.l2bus.respLayer1.occupancy     25052956964                       # Layer occupancy (ticks)
system.cpu.l2bus.respLayer1.utilization          11.0                       # Layer utilization (%)
system.cpu.l2cache.demand_hits::.switch_cpus.inst          183                       # number of demand (read+write) hits
system.cpu.l2cache.demand_hits::.switch_cpus.data     20920502                       # number of demand (read+write) hits
system.cpu.l2cache.demand_hits::total        20920685                       # number of demand (read+write) hits
system.cpu.l2cache.overall_hits::.switch_cpus.inst          183                       # number of overall hits
system.cpu.l2cache.overall_hits::.switch_cpus.data     20920502                       # number of overall hits
system.cpu.l2cache.overall_hits::total       20920685                       # number of overall hits
system.cpu.l2cache.demand_misses::.cpu.inst            3                       # number of demand (read+write) misses
system.cpu.l2cache.demand_misses::.cpu.data            3                       # number of demand (read+write) misses
system.cpu.l2cache.demand_misses::.switch_cpus.inst         1471                       # number of demand (read+write) misses
system.cpu.l2cache.demand_misses::.switch_cpus.data      4152605                       # number of demand (read+write) misses
system.cpu.l2cache.demand_misses::total       4154082                       # number of demand (read+write) misses
system.cpu.l2cache.overall_misses::.cpu.inst            3                       # number of overall misses
system.cpu.l2cache.overall_misses::.cpu.data            3                       # number of overall misses
system.cpu.l2cache.overall_misses::.switch_cpus.inst         1471                       # number of overall misses
system.cpu.l2cache.overall_misses::.switch_cpus.data      4152605                       # number of overall misses
system.cpu.l2cache.overall_misses::total      4154082                       # number of overall misses
system.cpu.l2cache.demand_miss_latency::.switch_cpus.inst    137008188                       # number of demand (read+write) miss cycles
system.cpu.l2cache.demand_miss_latency::.switch_cpus.data 538792028973                       # number of demand (read+write) miss cycles
system.cpu.l2cache.demand_miss_latency::total 538929037161                       # number of demand (read+write) miss cycles
system.cpu.l2cache.overall_miss_latency::.switch_cpus.inst    137008188                       # number of overall miss cycles
system.cpu.l2cache.overall_miss_latency::.switch_cpus.data 538792028973                       # number of overall miss cycles
system.cpu.l2cache.overall_miss_latency::total 538929037161                       # number of overall miss cycles
system.cpu.l2cache.demand_accesses::.cpu.inst            3                       # number of demand (read+write) accesses
system.cpu.l2cache.demand_accesses::.cpu.data            3                       # number of demand (read+write) accesses
system.cpu.l2cache.demand_accesses::.switch_cpus.inst         1654                       # number of demand (read+write) accesses
system.cpu.l2cache.demand_accesses::.switch_cpus.data     25073107                       # number of demand (read+write) accesses
system.cpu.l2cache.demand_accesses::total     25074767                       # number of demand (read+write) accesses
system.cpu.l2cache.overall_accesses::.cpu.inst            3                       # number of overall (read+write) accesses
system.cpu.l2cache.overall_accesses::.cpu.data            3                       # number of overall (read+write) accesses
system.cpu.l2cache.overall_accesses::.switch_cpus.inst         1654                       # number of overall (read+write) accesses
system.cpu.l2cache.overall_accesses::.switch_cpus.data     25073107                       # number of overall (read+write) accesses
system.cpu.l2cache.overall_accesses::total     25074767                       # number of overall (read+write) accesses
system.cpu.l2cache.demand_miss_rate::.cpu.inst            1                       # miss rate for demand accesses
system.cpu.l2cache.demand_miss_rate::.cpu.data            1                       # miss rate for demand accesses
system.cpu.l2cache.demand_miss_rate::.switch_cpus.inst     0.889359                       # miss rate for demand accesses
system.cpu.l2cache.demand_miss_rate::.switch_cpus.data     0.165620                       # miss rate for demand accesses
system.cpu.l2cache.demand_miss_rate::total     0.165668                       # miss rate for demand accesses
system.cpu.l2cache.overall_miss_rate::.cpu.inst            1                       # miss rate for overall accesses
system.cpu.l2cache.overall_miss_rate::.cpu.data            1                       # miss rate for overall accesses
system.cpu.l2cache.overall_miss_rate::.switch_cpus.inst     0.889359                       # miss rate for overall accesses
system.cpu.l2cache.overall_miss_rate::.switch_cpus.data     0.165620                       # miss rate for overall accesses
system.cpu.l2cache.overall_miss_rate::total     0.165668                       # miss rate for overall accesses
system.cpu.l2cache.demand_avg_miss_latency::.switch_cpus.inst 93139.488783                       # average overall miss latency
system.cpu.l2cache.demand_avg_miss_latency::.switch_cpus.data 129747.960370                       # average overall miss latency
system.cpu.l2cache.demand_avg_miss_latency::total 129734.809559                       # average overall miss latency
system.cpu.l2cache.overall_avg_miss_latency::.switch_cpus.inst 93139.488783                       # average overall miss latency
system.cpu.l2cache.overall_avg_miss_latency::.switch_cpus.data 129747.960370                       # average overall miss latency
system.cpu.l2cache.overall_avg_miss_latency::total 129734.809559                       # average overall miss latency
system.cpu.l2cache.blocked_cycles::no_mshrs            0                       # number of cycles access was blocked
system.cpu.l2cache.blocked_cycles::no_targets            0                       # number of cycles access was blocked
system.cpu.l2cache.blocked::no_mshrs                0                       # number of cycles access was blocked
system.cpu.l2cache.blocked::no_targets              0                       # number of cycles access was blocked
system.cpu.l2cache.avg_blocked_cycles::no_mshrs          nan                       # average number of cycles each access was blocked
system.cpu.l2cache.avg_blocked_cycles::no_targets          nan                       # average number of cycles each access was blocked
system.cpu.l2cache.writebacks::.writebacks      4150741                       # number of writebacks
system.cpu.l2cache.writebacks::total          4150741                       # number of writebacks
system.cpu.l2cache.demand_mshr_misses::.switch_cpus.inst         1471                       # number of demand (read+write) MSHR misses
system.cpu.l2cache.demand_mshr_misses::.switch_cpus.data      4152605                       # number of demand (read+write) MSHR misses
system.cpu.l2cache.demand_mshr_misses::total      4154076                       # number of demand (read+write) MSHR misses
system.cpu.l2cache.overall_mshr_misses::.switch_cpus.inst         1471                       # number of overall MSHR misses
system.cpu.l2cache.overall_mshr_misses::.switch_cpus.data      4152605                       # number of overall MSHR misses
system.cpu.l2cache.overall_mshr_misses::total      4154076                       # number of overall MSHR misses
[...]
system.switch_cpus.commit.numCommittedDist::0    588153954     86.17%     86.17% # Number of insts commited each cycle
system.switch_cpus.commit.numCommittedDist::1     29916659      4.38%     90.55% # Number of insts commited each cycle
system.switch_cpus.commit.numCommittedDist::2     16600012      2.43%     92.98% # Number of insts commited each cycle
system.switch_cpus.commit.numCommittedDist::3      8464591      1.24%     94.22% # Number of insts commited each cycle
system.switch_cpus.commit.numCommittedDist::4      9157811      1.34%     95.56% # Number of insts commited each cycle
system.switch_cpus.commit.numCommittedDist::5      3083497      0.45%     96.02% # Number of insts commited each cycle
system.switch_cpus.commit.numCommittedDist::6      3345403      0.49%     96.51% # Number of insts commited each cycle
system.switch_cpus.commit.numCommittedDist::7      1629314      0.24%     96.75% # Number of insts commited each cycle
system.switch_cpus.commit.numCommittedDist::8     22215026      3.25%    100.00% # Number of insts commited each cycle
system.switch_cpus.commit.numCommittedDist::overflows            0      0.00%    100.00% # Number of insts commited each cycle
system.switch_cpus.commit.numCommittedDist::min_value            0                       # Number of insts commited each cycle
system.switch_cpus.commit.numCommittedDist::max_value            8                       # Number of insts commited each cycle
system.switch_cpus.commit.numCommittedDist::total    682566267                       # Number of insts commited each cycle
system.switch_cpus.commit.instsCommitted    250000000                       # Number of instructions committed
system.switch_cpus.commit.opsCommitted      349757009                       # Number of ops (including micro ops) committed
system.switch_cpus.commit.memRefs           128242900                       # Number of memory references committed
system.switch_cpus.commit.loads              91494356                       # Number of loads committed
system.switch_cpus.commit.amos                      0                       # Number of atomic instructions committed
system.switch_cpus.commit.membars                   0                       # Number of memory barriers committed
system.switch_cpus.commit.branches           19571554                       # Number of branches committed
system.switch_cpus.commit.vector                    0                       # Number of committed Vector instructions.
system.switch_cpus.commit.floating          186752785                       # Number of committed floating point instructions.
system.switch_cpus.commit.integer           247706387                       # Number of committed integer instructions.
system.switch_cpus.commit.functionCalls       2252877                       # Number of function calls committed.
system.switch_cpus.commit.committedInstType_0::No_OpClass         4715      0.00%      0.00% # Class of committed instruction
system.switch_cpus.commit.committedInstType_0::IntAlu    136081785     38.91%     38.91% # Class of committed instruction
system.switch_cpus.commit.committedInstType_0::IntMult       249476      0.07%     38.98% # Class of committed instruction
system.switch_cpus.commit.committedInstType_0::IntDiv           14      0.00%     38.98% # Class of committed instruction
system.switch_cpus.commit.committedInstType_0::FloatAdd      6295215      1.80%     40.78% # Class of committed instruction
system.switch_cpus.commit.committedInstType_0::FloatCmp            0      0.00%     40.78% # Class of committed instruction
system.switch_cpus.commit.committedInstType_0::FloatCvt            0      0.00%     40.78% # Class of committed instruction
system.switch_cpus.commit.committedInstType_0::FloatMult            0      0.00%     40.78% # Class of committed instruction
system.switch_cpus.commit.committedInstType_0::FloatMultAcc            0      0.00%     40.78% # Class of committed instruction
system.switch_cpus.commit.committedInstType_0::FloatDiv            0      0.00%     40.78% # Class of committed instruction
system.switch_cpus.commit.committedInstType_0::FloatMisc            0      0.00%     40.78% # Class of committed instruction
system.switch_cpus.commit.committedInstType_0::FloatSqrt            0      0.00%     40.78% # Class of committed instruction
system.switch_cpus.commit.committedInstType_0::SimdAdd          162      0.00%     40.78% # Class of committed instruction
system.switch_cpus.commit.committedInstType_0::SimdAddAcc            0      0.00%     40.78% # Class of committed instruction
system.switch_cpus.commit.committedInstType_0::SimdAlu      1146980      0.33%     41.11% # Class of committed instruction
system.switch_cpus.commit.committedInstType_0::SimdCmp            0      0.00%     41.11% # Class of committed instruction
system.switch_cpus.commit.committedInstType_0::SimdCvt         1660      0.00%     41.11% # Class of committed instruction
system.switch_cpus.commit.committedInstType_0::SimdMisc      2863744      0.82%     41.93% # Class of committed instruction
system.switch_cpus.commit.committedInstType_0::SimdMult            0      0.00%     41.93% # Class of committed instruction
system.switch_cpus.commit.committedInstType_0::SimdMultAcc            0      0.00%     41.93% # Class of committed instruction
system.switch_cpus.commit.committedInstType_0::SimdShift            0      0.00%     41.93% # Class of committed instruction
system.switch_cpus.commit.committedInstType_0::SimdShiftAcc            0      0.00%     41.93% # Class of committed instruction
system.switch_cpus.commit.committedInstType_0::SimdDiv            0      0.00%     41.93% # Class of committed instruction
system.switch_cpus.commit.committedInstType_0::SimdSqrt            0      0.00%     41.93% # Class of committed instruction
system.switch_cpus.commit.committedInstType_0::SimdFloatAdd     27044982      7.73%     49.66% # Class of committed instruction
system.switch_cpus.commit.committedInstType_0::SimdFloatAlu            0      0.00%     49.66% # Class of committed instruction
system.switch_cpus.commit.committedInstType_0::SimdFloatCmp       592704      0.17%     49.83% # Class of committed instruction
system.switch_cpus.commit.committedInstType_0::SimdFloatCvt      2309950      0.66%     50.49% # Class of committed instruction
system.switch_cpus.commit.committedInstType_0::SimdFloatDiv           12      0.00%     50.49% # Class of committed instruction
system.switch_cpus.commit.committedInstType_0::SimdFloatMisc            0      0.00%     50.49% # Class of committed instruction
system.switch_cpus.commit.committedInstType_0::SimdFloatMult     44922710     12.84%     63.33% # Class of committed instruction
system.switch_cpus.commit.committedInstType_0::SimdFloatMultAcc            0      0.00%     63.33% # Class of committed instruction
system.switch_cpus.commit.committedInstType_0::SimdFloatSqrt            0      0.00%     63.33% # Class of committed instruction
system.switch_cpus.commit.committedInstType_0::SimdReduceAdd            0      0.00%     63.33% # Class of committed instruction
system.switch_cpus.commit.committedInstType_0::SimdReduceAlu            0      0.00%     63.33% # Class of committed instruction
system.switch_cpus.commit.committedInstType_0::SimdReduceCmp            0      0.00%     63.33% # Class of committed instruction
system.switch_cpus.commit.committedInstType_0::SimdFloatReduceAdd            0      0.00%     63.33% # Class of committed instruction
system.switch_cpus.commit.committedInstType_0::SimdFloatReduceCmp            0      0.00%     63.33% # Class of committed instruction
system.switch_cpus.commit.committedInstType_0::SimdAes            0      0.00%     63.33% # Class of committed instruction
system.switch_cpus.commit.committedInstType_0::SimdAesMix            0      0.00%     63.33% # Class of committed instruction
system.switch_cpus.commit.committedInstType_0::SimdSha1Hash            0      0.00%     63.33% # Class of committed instruction
system.switch_cpus.commit.committedInstType_0::SimdSha1Hash2            0      0.00%     63.33% # Class of committed instruction
system.switch_cpus.commit.committedInstType_0::SimdSha256Hash            0      0.00%     63.33% # Class of committed instruction
system.switch_cpus.commit.committedInstType_0::SimdSha256Hash2            0      0.00%     63.33% # Class of committed instruction
system.switch_cpus.commit.committedInstType_0::SimdShaSigma2            0      0.00%     63.33% # Class of committed instruction
system.switch_cpus.commit.committedInstType_0::SimdShaSigma3            0      0.00%     63.33% # Class of committed instruction
system.switch_cpus.commit.committedInstType_0::SimdPredAlu            0      0.00%     63.33% # Class of committed instruction
system.switch_cpus.commit.committedInstType_0::MemRead     39560789     11.31%     74.64% # Class of committed instruction
system.switch_cpus.commit.committedInstType_0::MemWrite      6809695      1.95%     76.59% # Class of committed instruction
system.switch_cpus.commit.committedInstType_0::FloatMemRead     51933567     14.85%     91.44% # Class of committed instruction
system.switch_cpus.commit.committedInstType_0::FloatMemWrite     29938849      8.56%    100.00% # Class of committed instruction
system.switch_cpus.commit.committedInstType_0::IprAccess            0      0.00%    100.00% # Class of committed instruction
system.switch_cpus.commit.committedInstType_0::InstPrefetch            0      0.00%    100.00% # Class of committed instruction
system.switch_cpus.commit.committedInstType_0::total    349757009                       # Class of committed instruction
system.switch_cpus.commit.commitEligibleSamples     22215026                       # number cycles where commit BW limit reached
system.switch_cpus.decode.idleCycles          8161240                       # Number of cycles decode is idle
system.switch_cpus.decode.blockedCycles     628132665                       # Number of cycles decode is blocked
system.switch_cpus.decode.runCycles          26219519                       # Number of cycles decode is running
system.switch_cpus.decode.unblockCycles      20104334                       # Number of cycles decode is unblocking
system.switch_cpus.decode.squashCycles          22751                       # Number of cycles decode is squashing
system.switch_cpus.decode.branchResolved      6965346                       # Number of times decode resolved a  branch
system.switch_cpus.decode.branchMispred          2144                       # Number of times decode detected a branch misprediction
system.switch_cpus.decode.decodedInsts      350559674                       # Number of instructions handled by decode
system.switch_cpus.decode.squashedInsts         10772                       # Number of squashed instructions handled by decode
system.switch_cpus.dtb.rdAccesses            91613856                       # TLB accesses on read requests
system.switch_cpus.dtb.wrAccesses            36758275                       # TLB accesses on write requests
system.switch_cpus.dtb.rdMisses                 55444                       # TLB misses on read requests
system.switch_cpus.dtb.wrMisses                 18826                       # TLB misses on write requests
system.switch_cpus.dtb.walker.power_state.pwrStateResidencyTicks::UNDEFINED 16086822272136                       # Cumulative time (in ticks) in various power states
system.switch_cpus.fetch.icacheStallCycles        71960                       # Number of cycles fetch is stalled on an Icache miss
system.switch_cpus.fetch.insts              251089767                       # Number of instructions fetch has processed
system.switch_cpus.fetch.branches            19662184                       # Number of branches that fetch encountered
system.switch_cpus.fetch.predictedBranches     11495210                       # Number of branches that fetch has predicted taken
system.switch_cpus.fetch.cycles             682543677                       # Number of cycles fetch has run and was not squashing or blocked
system.switch_cpus.fetch.squashCycles           49754                       # Number of cycles fetch has spent squashing
system.switch_cpus.fetch.miscStallCycles            1                       # Number of cycles fetch has spent waiting on interrupts,or bad addresses, or out of MSHRs
system.switch_cpus.fetch.pendingTrapStallCycles            1                       # Number of stall cycles due to pending traps
system.switch_cpus.fetch.cacheLines          31000772                       # Number of cache lines fetched
system.switch_cpus.fetch.icacheSquashes          1365                       # Number of outstanding Icache misses that were squashed
system.switch_cpus.fetch.nisnDist::samples    682640516                       # Number of instructions fetched each cycle (Total)
system.switch_cpus.fetch.nisnDist::mean      0.514512                       # Number of instructions fetched each cycle (Total)
system.switch_cpus.fetch.nisnDist::stdev     1.791080                       # Number of instructions fetched each cycle (Total)
system.switch_cpus.fetch.nisnDist::underflows            0      0.00%      0.00% # Number of instructions fetched each cycle (Total)
system.switch_cpus.fetch.nisnDist::0        620122923     90.84%     90.84% # Number of instructions fetched each cycle (Total)
system.switch_cpus.fetch.nisnDist::1          3933897      0.58%     91.42% # Number of instructions fetched each cycle (Total)
system.switch_cpus.fetch.nisnDist::2          6451432      0.95%     92.36% # Number of instructions fetched each cycle (Total)
system.switch_cpus.fetch.nisnDist::3          8400001      1.23%     93.59% # Number of instructions fetched each cycle (Total)
system.switch_cpus.fetch.nisnDist::4          3253642      0.48%     94.07% # Number of instructions fetched each cycle (Total)
system.switch_cpus.fetch.nisnDist::5          4616502      0.68%     94.75% # Number of instructions fetched each cycle (Total)
system.switch_cpus.fetch.nisnDist::6          4834713      0.71%     95.45% # Number of instructions fetched each cycle (Total)
system.switch_cpus.fetch.nisnDist::7          4134406      0.61%     96.06% # Number of instructions fetched each cycle (Total)
system.switch_cpus.fetch.nisnDist::8         26893000      3.94%    100.00% # Number of instructions fetched each cycle (Total)
system.switch_cpus.fetch.nisnDist::overflows            0      0.00%    100.00% # Number of instructions fetched each cycle (Total)
system.switch_cpus.fetch.nisnDist::min_value            0                       # Number of instructions fetched each cycle (Total)
system.switch_cpus.fetch.nisnDist::max_value            8                       # Number of instructions fetched each cycle (Total)
system.switch_cpus.fetch.nisnDist::total    682640516                       # Number of instructions fetched each cycle (Total)
system.switch_cpus.fetch.branchRate          0.028792                       # Number of branch fetches per cycle
system.switch_cpus.fetch.rate                0.367676                       # Number of inst fetches per cycle
system.switch_cpus.itb.rdAccesses                   0                       # TLB accesses on read requests
system.switch_cpus.itb.wrAccesses            31000773                       # TLB accesses on write requests
system.switch_cpus.itb.rdMisses                     0                       # TLB misses on read requests
system.switch_cpus.itb.wrMisses                   115                       # TLB misses on write requests
system.switch_cpus.itb.walker.power_state.pwrStateResidencyTicks::UNDEFINED 16086822272136                       # Cumulative time (in ticks) in various power states
system.switch_cpus.lsq0.forwLoads            16439786                       # Number of loads that had data forwarded from stores
system.switch_cpus.lsq0.squashedLoads          203077                       # Number of loads squashed
system.switch_cpus.lsq0.ignoredResponses           16                       # Number of memory responses ignored because the instruction is squashed
system.switch_cpus.lsq0.memOrderViolation         2260                       # Number of memory ordering violations
system.switch_cpus.lsq0.squashedStores          53652                       # Number of stores squashed
system.switch_cpus.lsq0.rescheduledLoads           15                       # Number of loads that were rescheduled
system.switch_cpus.lsq0.blockedByCache         711988                       # Number of times an access to memory failed due to the cache being blocked
system.switch_cpus.power_state.pwrStateResidencyTicks::OFF 227409452910                       # Cumulative time (in ticks) in various power states
system.switch_cpus.rename.squashCycles          22751                       # Number of cycles rename is squashing
system.switch_cpus.rename.idleCycles         15859065                       # Number of cycles rename is idle
system.switch_cpus.rename.blockCycles       280511834                       # Number of cycles rename is blocking
system.switch_cpus.rename.serializeStallCycles            0                       # count of cycles rename stalledfor serializing inst
system.switch_cpus.rename.runCycles          37762492                       # Number of cycles rename is running
system.switch_cpus.rename.unblockCycles     348484367                       # Number of cycles rename is unblocking
system.switch_cpus.rename.renamedInsts      350391655                       # Number of instructions processed by rename
system.switch_cpus.rename.ROBFullEvents        475045                       # Number of times rename has blocked due to ROB full
system.switch_cpus.rename.IQFullEvents        8232394                       # Number of times rename has blocked due to IQ full
system.switch_cpus.rename.LQFullEvents       34258644                       # Number of times rename has blocked due to LQ full
system.switch_cpus.rename.SQFullEvents      302251821                       # Number of times rename has blocked due to SQ full
system.switch_cpus.rename.renamedOperands    343250023                       # Number of destination operands rename has renamed
system.switch_cpus.rename.lookups           926533667                       # Number of register rename lookups that rename has made
system.switch_cpus.rename.intLookups        380792529                       # Number of integer rename lookups
system.switch_cpus.rename.fpLookups         296879562                       # Number of floating rename lookups
system.switch_cpus.rename.committedMaps     342586589                       # Number of HB maps that are committed
system.switch_cpus.rename.undoneMaps           663427                       # Number of HB maps that are undone due to squashing
system.switch_cpus.rename.serializing               0                       # count of serializing insts renamed
system.switch_cpus.rename.tempSerializing            0                       # count of temporary serializing insts renamed
system.switch_cpus.rename.skidInsts         110619226                       # count of insts added to the skid buffer
system.switch_cpus.rob.reads               1010617924                       # The number of ROB reads
system.switch_cpus.rob.writes               700607777                       # The number of ROB writes
system.switch_cpus.thread0.numInsts         250000000                       # Number of Instructions committed
system.switch_cpus.thread0.numOps           349757009                       # Number of Ops committed
system.switch_cpus.thread0.numMemRefs               0                       # Number of Memory References
system.voltage_domain.voltage                       1                       # Voltage in Volts

---------- End Simulation Statistics   ----------
