Command line:
./runscript_pride.sh deepsjeng AE.BASELINE.1C 1 2017
Global frequency set at 1000000000000 ticks per second
DRAM config: RowsPerBank: 65536, BanksPerRank: 32, RanksPerChannel: 1
warn: Sockets disabled, not accepting gdb connections
warn: CoherentXBar system.cpu.mmucache.mmubus has no snooping ports attached!
warn: Checkpoints for file descriptors currently do not work.
gem5 Simulator System.  http://gem5.org
gem5 is copyrighted software; use the --copyright option for details.

gem5 version 20.1.0.5
gem5 compiled Jul 12 2024 12:42:38
gem5 started Jul 31 2024 03:21:18
gem5 executing on a07dda8b130c, pid 225579
command line: /home/user/PrIDE/performance/gem5/build/X86/gem5.opt --outdir=/home/user/PrIDE/performance/gem5/stats/pride_multiprogram_16GBmem_250Mn.SPEC2017.C1/AE.BASELINE.1C/deepsjeng /home/user/PrIDE/performance/gem5/configs/example/se_rq_spec_config_multicore.py --redirects /lib64=/home/utils/gcc-6.2.0/lib64 --benchmark=deepsjeng --benchmark_stdout=/home/user/PrIDE/performance/gem5/stats/pride_multiprogram_16GBmem_250Mn.SPEC2017.C1/AE.BASELINE.1C/deepsjeng/deepsjeng.out --benchmark_stderr=/home/user/PrIDE/performance/gem5/stats/pride_multiprogram_16GBmem_250Mn.SPEC2017.C1/AE.BASELINE.1C/deepsjeng/deepsjeng.err --spec-version=2017 --num-cpus=1 --mem-size=16GB --mem-type=DDR5_2400_32x4 --mem-ranks=1 --mem-channels=1 --checkpoint-dir=/home/user/PrIDE/performance/gem5/cpts-DDR5/multiprogram_16GBmem_25Bn.SPEC2017.C1/deepsjeng-1-ref-x86 --checkpoint-restore=25000000000 --at-instruction --cpu-type DerivO3CPU --caches --l2cache --l1d_size=32kB --l1i_size=32kB --l2_size=256kB --l3_size=4MB --l1d_assoc=8 --l1i_assoc=8 --l2_assoc=16 --l3_assoc=16 --cpu-clock=3GHz --sys-clock=3GHz --maxinsts=250000000 --prog-interval=300Hz

info: Standard input is not a terminal, disabling listeners.
Benchmark- 0   deepsjeng
Selected benchmark
--> deepsjeng
CMD: ['/opt/spec2017/benchspec/CPU/531.deepsjeng_r/run/run_base_refrate_gem5_se-m64.0000/deepsjeng_r_base.gem5_se-m64', '/opt/spec2017/benchspec/CPU/531.deepsjeng_r/run/run_base_refrate_gem5_se-m64.0000/ref.txt']
CWD: /opt/spec2017/benchspec/CPU/531.deepsjeng_r/run/run_base_refrate_gem5_se-m64.0000/
Process stdout file: /home/user/PrIDE/performance/gem5/stats/pride_multiprogram_16GBmem_250Mn.SPEC2017.C1/AE.BASELINE.1C/deepsjeng/deepsjeng.out_0
Process stderr file: /home/user/PrIDE/performance/gem5/stats/pride_multiprogram_16GBmem_250Mn.SPEC2017.C1/AE.BASELINE.1C/deepsjeng/deepsjeng.err_0
Workload-0: 
['/opt/spec2017/benchspec/CPU/531.deepsjeng_r/run/run_base_refrate_gem5_se-m64.0000/deepsjeng_r_base.gem5_se-m64', '/opt/spec2017/benchspec/CPU/531.deepsjeng_r/run/run_base_refrate_gem5_se-m64.0000/ref.txt']
defense_enable:  False  detector:  MG  mitigation:  RRS  threshold:  800
mg_entries:  1700
rrs_tuples:  3400 rrs_swap_delay:  2740ns rit_acc_delay:  1.25ns
Switch at curTick count:10000
warn: membus.master is deprecated. `master` is now called `mem_side_ports`
warn: No dot file generated. Please install pydot to generate the dot file and pdf.
info: Entering event queue @ 16546382661060.  Starting simulation...
info: Entering event queue @ 16546382671060.  Starting simulation...
warn: PowerState: Already in the requested power state, request ignored
Switched CPUS @ tick 16546382671060
switching cpus
**** REAL SIMULATION ****
info: Entering event queue @ 16546382671716.  Starting simulation...
16549715994393: Event_93: system.switch_cpus progress event, total committed:22348831, progress insts committed: 22348831, IPC: 02.23265
16553049327726: Event_93: system.switch_cpus progress event, total committed:44935920, progress insts committed: 22587089, IPC: 02.25645
16556382661059: Event_93: system.switch_cpus progress event, total committed:67303046, progress insts committed: 22367126, IPC: 02.23448
16559715994392: Event_93: system.switch_cpus progress event, total committed:89749657, progress insts committed: 22446611, IPC: 02.24242
16563049327725: Event_93: system.switch_cpus progress event, total committed:111500844, progress insts committed: 21751187, IPC: 02.17294
16566382661058: Event_93: system.switch_cpus progress event, total committed:132971938, progress insts committed: 21471094, IPC: 02.14496
16569715994391: Event_93: system.switch_cpus progress event, total committed:154846634, progress insts committed: 21874696, IPC: 02.18528
16573049327724: Event_93: system.switch_cpus progress event, total committed:176783477, progress insts committed: 21936843, IPC: 02.19149
16576382661057: Event_93: system.switch_cpus progress event, total committed:198496229, progress insts committed: 21712752, IPC: 002.1691
16579715994390: Event_93: system.switch_cpus progress event, total committed:220673556, progress insts committed: 22177327, IPC: 02.21551
16583049327723: Event_93: system.switch_cpus progress event, total committed:242829790, progress insts committed: 22156234, IPC: 02.21341
16586382661056: Event_93: system.switch_cpus progress event, total committed:265112214, progress insts committed: 22282424, IPC: 02.22601
16589715994389: Event_93: system.switch_cpus progress event, total committed:287254802, progress insts committed: 22142588, IPC: 02.21204
16593049327722: Event_93: system.switch_cpus progress event, total committed:310314577, progress insts committed: 23059775, IPC: 02.30367
16596382661055: Event_93: system.switch_cpus progress event, total committed:333081173, progress insts committed: 22766596, IPC: 02.27438
16599715994388: Event_93: system.switch_cpus progress event, total committed:355159815, progress insts committed: 22078642, IPC: 02.20566
16603049327721: Event_93: system.switch_cpus progress event, total committed:377002892, progress insts committed: 21843077, IPC: 02.18212
16606382661054: Event_93: system.switch_cpus progress event, total committed:399136510, progress insts committed: 22133618, IPC: 02.21115
Exiting @ tick 16607139859377 because a thread reached the max instruction count
