
---------- Begin Simulation Statistics ----------
final_tick                               16607143760139                       # Number of ticks from beginning of simulation (restored from checkpoints and never reset)
host_inst_rate                                 120757                       # Simulator instruction rate (inst/s)
host_mem_usage                               17075140                       # Number of bytes of host memory used
host_op_rate                                   195209                       # Simulator op (including micro ops) rate (op/s)
host_seconds                                  2070.27                       # Real time elapsed on the host
host_tick_rate                               29349311                       # Simulator tick rate (ticks/s)
sim_freq                                 1000000000000                       # Frequency of simulated ticks
sim_insts                                   250000018                       # Number of instructions simulated
sim_ops                                     404136893                       # Number of ops (including micro ops) simulated
sim_seconds                                  0.060761                       # Number of seconds simulated
sim_ticks                                 60761126718                       # Number of ticks simulated
system.cpu.Branches                                 2                       # Number of branches fetched
system.cpu.committedInsts                          18                       # Number of instructions committed
system.cpu.committedOps                            25                       # Number of ops (including micro ops) committed
system.cpu.idle_fraction                            0                       # Percentage of idle cycles
system.cpu.l2bus.snoop_filter.hit_multi_requests         1174                       # Number of requests hitting in the snoop filter with multiple (>1) holders of the requested data.
system.cpu.l2bus.snoop_filter.hit_multi_snoops            0                       # Number of snoops hitting in the snoop filter with multiple (>1) holders of the requested data.
system.cpu.l2bus.snoop_filter.hit_single_requests       543742                       # Number of requests hitting in the snoop filter with a single holder of the requested data.
system.cpu.l2bus.snoop_filter.hit_single_snoops         2756                       # Number of snoops hitting in the snoop filter with a single holder of the requested data.
system.cpu.l2bus.snoop_filter.tot_requests      1088073                       # Total number of requests made to the snoop filter.
system.cpu.l2bus.snoop_filter.tot_snoops         2756                       # Total number of snoops made to the snoop filter.
system.cpu.mmucache.mmubus.snoop_filter.hit_multi_requests            0                       # Number of requests hitting in the snoop filter with multiple (>1) holders of the requested data.
system.cpu.mmucache.mmubus.snoop_filter.hit_multi_snoops            0                       # Number of snoops hitting in the snoop filter with multiple (>1) holders of the requested data.
system.cpu.mmucache.mmubus.snoop_filter.hit_single_requests            0                       # Number of requests hitting in the snoop filter with a single holder of the requested data.
system.cpu.mmucache.mmubus.snoop_filter.hit_single_snoops            0                       # Number of snoops hitting in the snoop filter with a single holder of the requested data.
system.cpu.mmucache.mmubus.snoop_filter.tot_requests            0                       # Total number of requests made to the snoop filter.
system.cpu.mmucache.mmubus.snoop_filter.tot_snoops            0                       # Total number of snoops made to the snoop filter.
system.cpu.not_idle_fraction                        1                       # Percentage of non-idle cycles
system.cpu.numCycles                               30                       # number of cpu cycles simulated
system.cpu.numWorkItemsCompleted                    0                       # number of work items this cpu completed
system.cpu.numWorkItemsStarted                      0                       # number of work items this cpu started
system.cpu.num_busy_cycles                         30                       # Number of busy cycles
system.cpu.num_cc_register_reads                   13                       # number of times the CC registers were read
system.cpu.num_cc_register_writes                  18                       # number of times the CC registers were written
system.cpu.num_conditional_control_insts            1                       # number of instructions that are conditional controls
system.cpu.num_fp_alu_accesses                      0                       # Number of float alu accesses
system.cpu.num_fp_insts                             0                       # number of float instructions
system.cpu.num_fp_register_reads                    0                       # number of times the floating registers were read
system.cpu.num_fp_register_writes                   0                       # number of times the floating registers were written
system.cpu.num_func_calls                           0                       # number of times a function call or return occured
system.cpu.num_idle_cycles                          0                       # Number of idle cycles
system.cpu.num_int_alu_accesses                    25                       # Number of integer alu accesses
system.cpu.num_int_insts                           25                       # number of integer instructions
system.cpu.num_int_register_reads                  43                       # number of times the integer registers were read
system.cpu.num_int_register_writes                 23                       # number of times the integer registers were written
system.cpu.num_load_insts                           4                       # Number of load instructions
system.cpu.num_mem_refs                             4                       # number of memory refs
system.cpu.num_store_insts                          0                       # Number of store instructions
system.cpu.num_vec_alu_accesses                     0                       # Number of vector alu accesses
system.cpu.num_vec_insts                            0                       # number of vector instructions
system.cpu.num_vec_register_reads                   0                       # number of times the vector registers were read
system.cpu.num_vec_register_writes                  0                       # number of times the vector registers were written
system.cpu.op_class::No_OpClass                     0      0.00%      0.00% # Class of executed instruction
system.cpu.op_class::IntAlu                        21     84.00%     84.00% # Class of executed instruction
system.cpu.op_class::IntMult                        0      0.00%     84.00% # Class of executed instruction
system.cpu.op_class::IntDiv                         0      0.00%     84.00% # Class of executed instruction
system.cpu.op_class::FloatAdd                       0      0.00%     84.00% # Class of executed instruction
system.cpu.op_class::FloatCmp                       0      0.00%     84.00% # Class of executed instruction
system.cpu.op_class::FloatCvt                       0      0.00%     84.00% # Class of executed instruction
system.cpu.op_class::FloatMult                      0      0.00%     84.00% # Class of executed instruction
system.cpu.op_class::FloatMultAcc                   0      0.00%     84.00% # Class of executed instruction
system.cpu.op_class::FloatDiv                       0      0.00%     84.00% # Class of executed instruction
system.cpu.op_class::FloatMisc                      0      0.00%     84.00% # Class of executed instruction
system.cpu.op_class::FloatSqrt                      0      0.00%     84.00% # Class of executed instruction
system.cpu.op_class::SimdAdd                        0      0.00%     84.00% # Class of executed instruction
system.cpu.op_class::SimdAddAcc                     0      0.00%     84.00% # Class of executed instruction
system.cpu.op_class::SimdAlu                        0      0.00%     84.00% # Class of executed instruction
system.cpu.op_class::SimdCmp                        0      0.00%     84.00% # Class of executed instruction
system.cpu.op_class::SimdCvt                        0      0.00%     84.00% # Class of executed instruction
system.cpu.op_class::SimdMisc                       0      0.00%     84.00% # Class of executed instruction
system.cpu.op_class::SimdMult                       0      0.00%     84.00% # Class of executed instruction
system.cpu.op_class::SimdMultAcc                    0      0.00%     84.00% # Class of executed instruction
system.cpu.op_class::SimdShift                      0      0.00%     84.00% # Class of executed instruction
system.cpu.op_class::SimdShiftAcc                   0      0.00%     84.00% # Class of executed instruction
system.cpu.op_class::SimdDiv                        0      0.00%     84.00% # Class of executed instruction
system.cpu.op_class::SimdSqrt                       0      0.00%     84.00% # Class of executed instruction
system.cpu.op_class::SimdFloatAdd                   0      0.00%     84.00% # Class of executed instruction
system.cpu.op_class::SimdFloatAlu                   0      0.00%     84.00% # Class of executed instruction
system.cpu.op_class::SimdFloatCmp                   0      0.00%     84.00% # Class of executed instruction
system.cpu.op_class::SimdFloatCvt                   0      0.00%     84.00% # Class of executed instruction
system.cpu.op_class::SimdFloatDiv                   0      0.00%     84.00% # Class of executed instruction
system.cpu.op_class::SimdFloatMisc                  0      0.00%     84.00% # Class of executed instruction
system.cpu.op_class::SimdFloatMult                  0      0.00%     84.00% # Class of executed instruction
system.cpu.op_class::SimdFloatMultAcc               0      0.00%     84.00% # Class of executed instruction
system.cpu.op_class::SimdFloatSqrt                  0      0.00%     84.00% # Class of executed instruction
system.cpu.op_class::SimdReduceAdd                  0      0.00%     84.00% # Class of executed instruction
system.cpu.op_class::SimdReduceAlu                  0      0.00%     84.00% # Class of executed instruction
system.cpu.op_class::SimdReduceCmp                  0      0.00%     84.00% # Class of executed instruction
system.cpu.op_class::SimdFloatReduceAdd             0      0.00%     84.00% # Class of executed instruction
system.cpu.op_class::SimdFloatReduceCmp             0      0.00%     84.00% # Class of executed instruction
system.cpu.op_class::SimdAes                        0      0.00%     84.00% # Class of executed instruction
system.cpu.op_class::SimdAesMix                     0      0.00%     84.00% # Class of executed instruction
system.cpu.op_class::SimdSha1Hash                   0      0.00%     84.00% # Class of executed instruction
system.cpu.op_class::SimdSha1Hash2                  0      0.00%     84.00% # Class of executed instruction
system.cpu.op_class::SimdSha256Hash                 0      0.00%     84.00% # Class of executed instruction
system.cpu.op_class::SimdSha256Hash2                0      0.00%     84.00% # Class of executed instruction
system.cpu.op_class::SimdShaSigma2                  0      0.00%     84.00% # Class of executed instruction
system.cpu.op_class::SimdShaSigma3                  0      0.00%     84.00% # Class of executed instruction
system.cpu.op_class::SimdPredAlu                    0      0.00%     84.00% # Class of executed instruction
system.cpu.op_class::MemRead                        4     16.00%    100.00% # Class of executed instruction
system.cpu.op_class::MemWrite                       0      0.00%    100.00% # Class of executed instruction
system.cpu.op_class::FloatMemRead                   0      0.00%    100.00% # Class of executed instruction
system.cpu.op_class::FloatMemWrite                  0      0.00%    100.00% # Class of executed instruction
system.cpu.op_class::IprAccess                      0      0.00%    100.00% # Class of executed instruction
system.cpu.op_class::InstPrefetch                   0      0.00%    100.00% # Class of executed instruction
system.cpu.op_class::total                         25                       # Class of executed instruction
system.cpu.workload.numSyscalls                     0                       # Number of system calls
system.l3bus.snoop_filter.hit_multi_requests            0                       # Number of requests hitting in the snoop filter with multiple (>1) holders of the requested data.
system.l3bus.snoop_filter.hit_multi_snoops            0                       # Number of snoops hitting in the snoop filter with multiple (>1) holders of the requested data.
system.l3bus.snoop_filter.hit_single_requests        78696                       # Number of requests hitting in the snoop filter with a single holder of the requested data.
system.l3bus.snoop_filter.hit_single_snoops            0                       # Number of snoops hitting in the snoop filter with a single holder of the requested data.
system.l3bus.snoop_filter.tot_requests         161838                       # Total number of requests made to the snoop filter.
system.l3bus.snoop_filter.tot_snoops                0                       # Total number of snoops made to the snoop filter.
system.membus.snoop_filter.hit_multi_requests            0                       # Number of requests hitting in the snoop filter with multiple (>1) holders of the requested data.
system.membus.snoop_filter.hit_multi_snoops            0                       # Number of snoops hitting in the snoop filter with multiple (>1) holders of the requested data.
system.membus.snoop_filter.hit_single_requests        10509                       # Number of requests hitting in the snoop filter with a single holder of the requested data.
system.membus.snoop_filter.hit_single_snoops            0                       # Number of snoops hitting in the snoop filter with a single holder of the requested data.
system.membus.snoop_filter.tot_requests         86924                       # Total number of requests made to the snoop filter.
system.membus.snoop_filter.tot_snoops               0                       # Total number of snoops made to the snoop filter.
system.switch_cpus.cc_regfile_reads         223620790                       # number of cc regfile reads
system.switch_cpus.cc_regfile_writes        199557850                       # number of cc regfile writes
system.switch_cpus.committedInsts           250000000                       # Number of Instructions Simulated
system.switch_cpus.committedOps             404136868                       # Number of Ops (including micro ops) Simulated
system.switch_cpus.cpi                       0.729863                       # CPI: Cycles Per Instruction
system.switch_cpus.cpi_total                 0.729863                       # CPI: Total CPI of All Threads
system.switch_cpus.fp_regfile_reads            230367                       # number of floating regfile reads
system.switch_cpus.fp_regfile_writes           230476                       # number of floating regfile writes
system.switch_cpus.idleCycles                  105511                       # Total number of cycles that the CPU has spent unscheduled due to idling
system.switch_cpus.iew.branchMispredicts      3350801                       # Number of branch mispredicts detected at execute
system.switch_cpus.iew.exec_branches         44007663                       # Number of branches executed
system.switch_cpus.iew.exec_nop                     0                       # number of nop insts executed
system.switch_cpus.iew.exec_rate             2.806914                       # Inst execution rate
system.switch_cpus.iew.exec_refs            118429203                       # number of memory reference insts executed
system.switch_cpus.iew.exec_stores           36235864                       # Number of stores executed
system.switch_cpus.iew.exec_swp                     0                       # number of swp insts executed
system.switch_cpus.iew.iewBlockCycles        26154173                       # Number of cycles IEW is blocking
system.switch_cpus.iew.iewDispLoadInsts      94547411                       # Number of dispatched load instructions
system.switch_cpus.iew.iewDispNonSpecInsts            0                       # Number of dispatched non-speculative instructions
system.switch_cpus.iew.iewDispSquashedInsts        84694                       # Number of squashed instructions skipped by dispatch
system.switch_cpus.iew.iewDispStoreInsts     43401943                       # Number of dispatched store instructions
system.switch_cpus.iew.iewDispatchedInsts    603698227                       # Number of instructions dispatched to IQ
system.switch_cpus.iew.iewExecLoadInsts      82193339                       # Number of load instructions executed
system.switch_cpus.iew.iewExecSquashedInsts      6770681                       # Number of squashed instructions skipped in execute
system.switch_cpus.iew.iewExecutedInsts     512165854                       # Number of executed instructions
system.switch_cpus.iew.iewIQFullEvents          46227                       # Number of times the IQ has become full, causing a stall
system.switch_cpus.iew.iewIdleCycles                0                       # Number of cycles IEW is idle
system.switch_cpus.iew.iewLSQFullEvents         35946                       # Number of times the LSQ has become full, causing a stall
system.switch_cpus.iew.iewSquashCycles        3013315                       # Number of cycles IEW is squashing
system.switch_cpus.iew.iewUnblockCycles         96069                       # Number of cycles IEW is unblocking
system.switch_cpus.iew.memOrderViolationEvents       109084                       # Number of memory order violations
system.switch_cpus.iew.predictedNotTakenIncorrect      1669304                       # Number of branches that were predicted not taken incorrectly
system.switch_cpus.iew.predictedTakenIncorrect      1681497                       # Number of branches that were predicted taken incorrectly
system.switch_cpus.iew.wb_consumers         664582639                       # num instructions consuming a value
system.switch_cpus.iew.wb_count             509862674                       # cumulative count of insts written-back
system.switch_cpus.iew.wb_fanout             0.583372                       # average fanout of values written-back
system.switch_cpus.iew.wb_producers         387698970                       # num instructions producing a value
system.switch_cpus.iew.wb_rate               2.794291                       # insts written-back per cycle
system.switch_cpus.iew.wb_sent              511479146                       # cumulative count of insts sent to commit
system.switch_cpus.int_regfile_reads        795814483                       # number of integer regfile reads
system.switch_cpus.int_regfile_writes       434626885                       # number of integer regfile writes
system.switch_cpus.ipc                       1.370120                       # IPC: Instructions Per Cycle
system.switch_cpus.ipc_total                 1.370120                       # IPC: Total IPC of All Threads
system.switch_cpus.iq.FU_type_0::No_OpClass      1319194      0.25%      0.25% # Type of FU issued
system.switch_cpus.iq.FU_type_0::IntAlu     392294984     75.60%     75.85% # Type of FU issued
system.switch_cpus.iq.FU_type_0::IntMult      3433705      0.66%     76.51% # Type of FU issued
system.switch_cpus.iq.FU_type_0::IntDiv        893571      0.17%     76.68% # Type of FU issued
system.switch_cpus.iq.FU_type_0::FloatAdd            0      0.00%     76.68% # Type of FU issued
system.switch_cpus.iq.FU_type_0::FloatCmp            0      0.00%     76.68% # Type of FU issued
system.switch_cpus.iq.FU_type_0::FloatCvt            0      0.00%     76.68% # Type of FU issued
system.switch_cpus.iq.FU_type_0::FloatMult            0      0.00%     76.68% # Type of FU issued
system.switch_cpus.iq.FU_type_0::FloatMultAcc            0      0.00%     76.68% # Type of FU issued
system.switch_cpus.iq.FU_type_0::FloatDiv            0      0.00%     76.68% # Type of FU issued
system.switch_cpus.iq.FU_type_0::FloatMisc            0      0.00%     76.68% # Type of FU issued
system.switch_cpus.iq.FU_type_0::FloatSqrt            0      0.00%     76.68% # Type of FU issued
system.switch_cpus.iq.FU_type_0::SimdAdd            0      0.00%     76.68% # Type of FU issued
system.switch_cpus.iq.FU_type_0::SimdAddAcc            0      0.00%     76.68% # Type of FU issued
system.switch_cpus.iq.FU_type_0::SimdAlu            0      0.00%     76.68% # Type of FU issued
system.switch_cpus.iq.FU_type_0::SimdCmp            0      0.00%     76.68% # Type of FU issued
system.switch_cpus.iq.FU_type_0::SimdCvt            0      0.00%     76.68% # Type of FU issued
system.switch_cpus.iq.FU_type_0::SimdMisc            0      0.00%     76.68% # Type of FU issued
system.switch_cpus.iq.FU_type_0::SimdMult            0      0.00%     76.68% # Type of FU issued
system.switch_cpus.iq.FU_type_0::SimdMultAcc            0      0.00%     76.68% # Type of FU issued
system.switch_cpus.iq.FU_type_0::SimdShift            0      0.00%     76.68% # Type of FU issued
system.switch_cpus.iq.FU_type_0::SimdShiftAcc            0      0.00%     76.68% # Type of FU issued
system.switch_cpus.iq.FU_type_0::SimdDiv            0      0.00%     76.68% # Type of FU issued
system.switch_cpus.iq.FU_type_0::SimdSqrt            0      0.00%     76.68% # Type of FU issued
system.switch_cpus.iq.FU_type_0::SimdFloatAdd            0      0.00%     76.68% # Type of FU issued
system.switch_cpus.iq.FU_type_0::SimdFloatAlu            0      0.00%     76.68% # Type of FU issued
system.switch_cpus.iq.FU_type_0::SimdFloatCmp            0      0.00%     76.68% # Type of FU issued
system.switch_cpus.iq.FU_type_0::SimdFloatCvt            0      0.00%     76.68% # Type of FU issued
system.switch_cpus.iq.FU_type_0::SimdFloatDiv            0      0.00%     76.68% # Type of FU issued
system.switch_cpus.iq.FU_type_0::SimdFloatMisc            0      0.00%     76.68% # Type of FU issued
system.switch_cpus.iq.FU_type_0::SimdFloatMult            0      0.00%     76.68% # Type of FU issued
system.switch_cpus.iq.FU_type_0::SimdFloatMultAcc            0      0.00%     76.68% # Type of FU issued
system.switch_cpus.iq.FU_type_0::SimdFloatSqrt            0      0.00%     76.68% # Type of FU issued
system.switch_cpus.iq.FU_type_0::SimdReduceAdd            0      0.00%     76.68% # Type of FU issued
system.switch_cpus.iq.FU_type_0::SimdReduceAlu            0      0.00%     76.68% # Type of FU issued
system.switch_cpus.iq.FU_type_0::SimdReduceCmp            0      0.00%     76.68% # Type of FU issued
system.switch_cpus.iq.FU_type_0::SimdFloatReduceAdd            0      0.00%     76.68% # Type of FU issued
system.switch_cpus.iq.FU_type_0::SimdFloatReduceCmp            0      0.00%     76.68% # Type of FU issued
system.switch_cpus.iq.FU_type_0::SimdAes            0      0.00%     76.68% # Type of FU issued
system.switch_cpus.iq.FU_type_0::SimdAesMix            0      0.00%     76.68% # Type of FU issued
system.switch_cpus.iq.FU_type_0::SimdSha1Hash            0      0.00%     76.68% # Type of FU issued
system.switch_cpus.iq.FU_type_0::SimdSha1Hash2            0      0.00%     76.68% # Type of FU issued
system.switch_cpus.iq.FU_type_0::SimdSha256Hash            0      0.00%     76.68% # Type of FU issued
system.switch_cpus.iq.FU_type_0::SimdSha256Hash2            0      0.00%     76.68% # Type of FU issued
system.switch_cpus.iq.FU_type_0::SimdShaSigma2            0      0.00%     76.68% # Type of FU issued
system.switch_cpus.iq.FU_type_0::SimdShaSigma3            0      0.00%     76.68% # Type of FU issued
system.switch_cpus.iq.FU_type_0::SimdPredAlu            0      0.00%     76.68% # Type of FU issued
system.switch_cpus.iq.FU_type_0::MemRead     83704051     16.13%     92.81% # Type of FU issued
system.switch_cpus.iq.FU_type_0::MemWrite     36830162      7.10%     99.91% # Type of FU issued
system.switch_cpus.iq.FU_type_0::FloatMemRead       230484      0.04%     99.96% # Type of FU issued
system.switch_cpus.iq.FU_type_0::FloatMemWrite       230390      0.04%    100.00% # Type of FU issued
system.switch_cpus.iq.FU_type_0::IprAccess            0      0.00%    100.00% # Type of FU issued
system.switch_cpus.iq.FU_type_0::InstPrefetch            0      0.00%    100.00% # Type of FU issued
system.switch_cpus.iq.FU_type_0::total      518936541                       # Type of FU issued
system.switch_cpus.iq.fp_alu_accesses          460874                       # Number of floating point alu accesses
system.switch_cpus.iq.fp_inst_queue_reads       921748                       # Number of floating instruction queue reads
system.switch_cpus.iq.fp_inst_queue_wakeup_accesses       460757                       # Number of floating instruction queue wakeup accesses
system.switch_cpus.iq.fp_inst_queue_writes       820960                       # Number of floating instruction queue writes
system.switch_cpus.iq.fu_busy_cnt            10930250                       # FU busy when requested
system.switch_cpus.iq.fu_busy_rate           0.021063                       # FU busy rate (busy events/executed inst)
system.switch_cpus.iq.fu_full::No_OpClass            0      0.00%      0.00% # attempts to use FU when none available
system.switch_cpus.iq.fu_full::IntAlu         7550247     69.08%     69.08% # attempts to use FU when none available
system.switch_cpus.iq.fu_full::IntMult              0      0.00%     69.08% # attempts to use FU when none available
system.switch_cpus.iq.fu_full::IntDiv               0      0.00%     69.08% # attempts to use FU when none available
system.switch_cpus.iq.fu_full::FloatAdd             0      0.00%     69.08% # attempts to use FU when none available
system.switch_cpus.iq.fu_full::FloatCmp             0      0.00%     69.08% # attempts to use FU when none available
system.switch_cpus.iq.fu_full::FloatCvt             0      0.00%     69.08% # attempts to use FU when none available
system.switch_cpus.iq.fu_full::FloatMult            0      0.00%     69.08% # attempts to use FU when none available
system.switch_cpus.iq.fu_full::FloatMultAcc            0      0.00%     69.08% # attempts to use FU when none available
system.switch_cpus.iq.fu_full::FloatDiv             0      0.00%     69.08% # attempts to use FU when none available
system.switch_cpus.iq.fu_full::FloatMisc            0      0.00%     69.08% # attempts to use FU when none available
system.switch_cpus.iq.fu_full::FloatSqrt            0      0.00%     69.08% # attempts to use FU when none available
system.switch_cpus.iq.fu_full::SimdAdd              0      0.00%     69.08% # attempts to use FU when none available
system.switch_cpus.iq.fu_full::SimdAddAcc            0      0.00%     69.08% # attempts to use FU when none available
system.switch_cpus.iq.fu_full::SimdAlu              0      0.00%     69.08% # attempts to use FU when none available
system.switch_cpus.iq.fu_full::SimdCmp              0      0.00%     69.08% # attempts to use FU when none available
system.switch_cpus.iq.fu_full::SimdCvt              0      0.00%     69.08% # attempts to use FU when none available
system.switch_cpus.iq.fu_full::SimdMisc             0      0.00%     69.08% # attempts to use FU when none available
system.switch_cpus.iq.fu_full::SimdMult             0      0.00%     69.08% # attempts to use FU when none available
system.switch_cpus.iq.fu_full::SimdMultAcc            0      0.00%     69.08% # attempts to use FU when none available
system.switch_cpus.iq.fu_full::SimdShift            0      0.00%     69.08% # attempts to use FU when none available
system.switch_cpus.iq.fu_full::SimdShiftAcc            0      0.00%     69.08% # attempts to use FU when none available
system.switch_cpus.iq.fu_full::SimdDiv              0      0.00%     69.08% # attempts to use FU when none available
system.switch_cpus.iq.fu_full::SimdSqrt             0      0.00%     69.08% # attempts to use FU when none available
system.switch_cpus.iq.fu_full::SimdFloatAdd            0      0.00%     69.08% # attempts to use FU when none available
system.switch_cpus.iq.fu_full::SimdFloatAlu            0      0.00%     69.08% # attempts to use FU when none available
system.switch_cpus.iq.fu_full::SimdFloatCmp            0      0.00%     69.08% # attempts to use FU when none available
system.switch_cpus.iq.fu_full::SimdFloatCvt            0      0.00%     69.08% # attempts to use FU when none available
system.switch_cpus.iq.fu_full::SimdFloatDiv            0      0.00%     69.08% # attempts to use FU when none available
system.switch_cpus.iq.fu_full::SimdFloatMisc            0      0.00%     69.08% # attempts to use FU when none available
system.switch_cpus.iq.fu_full::SimdFloatMult            0      0.00%     69.08% # attempts to use FU when none available
system.switch_cpus.iq.fu_full::SimdFloatMultAcc            0      0.00%     69.08% # attempts to use FU when none available
system.switch_cpus.iq.fu_full::SimdFloatSqrt            0      0.00%     69.08% # attempts to use FU when none available
system.switch_cpus.iq.fu_full::SimdReduceAdd            0      0.00%     69.08% # attempts to use FU when none available
system.switch_cpus.iq.fu_full::SimdReduceAlu            0      0.00%     69.08% # attempts to use FU when none available
system.switch_cpus.iq.fu_full::SimdReduceCmp            0      0.00%     69.08% # attempts to use FU when none available
system.switch_cpus.iq.fu_full::SimdFloatReduceAdd            0      0.00%     69.08% # attempts to use FU when none available
system.switch_cpus.iq.fu_full::SimdFloatReduceCmp            0      0.00%     69.08% # attempts to use FU when none available
system.switch_cpus.iq.fu_full::SimdAes              0      0.00%     69.08% # attempts to use FU when none available
system.switch_cpus.iq.fu_full::SimdAesMix            0      0.00%     69.08% # attempts to use FU when none available
system.switch_cpus.iq.fu_full::SimdSha1Hash            0      0.00%     69.08% # attempts to use FU when none available
system.switch_cpus.iq.fu_full::SimdSha1Hash2            0      0.00%     69.08% # attempts to use FU when none available
system.switch_cpus.iq.fu_full::SimdSha256Hash            0      0.00%     69.08% # attempts to use FU when none available
system.switch_cpus.iq.fu_full::SimdSha256Hash2            0      0.00%     69.08% # attempts to use FU when none available
system.switch_cpus.iq.fu_full::SimdShaSigma2            0      0.00%     69.08% # attempts to use FU when none available
system.switch_cpus.iq.fu_full::SimdShaSigma3            0      0.00%     69.08% # attempts to use FU when none available
system.switch_cpus.iq.fu_full::SimdPredAlu            0      0.00%     69.08% # attempts to use FU when none available
system.switch_cpus.iq.fu_full::MemRead        2432444     22.25%     91.33% # attempts to use FU when none available
system.switch_cpus.iq.fu_full::MemWrite        947559      8.67%    100.00% # attempts to use FU when none available
system.switch_cpus.iq.fu_full::FloatMemRead            0      0.00%    100.00% # attempts to use FU when none available
system.switch_cpus.iq.fu_full::FloatMemWrite            0      0.00%    100.00% # attempts to use FU when none available
system.switch_cpus.iq.fu_full::IprAccess            0      0.00%    100.00% # attempts to use FU when none available
system.switch_cpus.iq.fu_full::InstPrefetch            0      0.00%    100.00% # attempts to use FU when none available
system.switch_cpus.iq.int_alu_accesses      528086723                       # Number of integer alu accesses
system.switch_cpus.iq.int_inst_queue_reads   1231647400                       # Number of integer instruction queue reads
system.switch_cpus.iq.int_inst_queue_wakeup_accesses    509401917                       # Number of integer instruction queue wakeup accesses
system.switch_cpus.iq.int_inst_queue_writes    802543128                       # Number of integer instruction queue writes
system.switch_cpus.iq.iqInstsAdded          603698227                       # Number of instructions added to the IQ (excludes non-spec)
system.switch_cpus.iq.iqInstsIssued         518936541                       # Number of instructions issued
system.switch_cpus.iq.iqSquashedInstsExamined    199561270                       # Number of squashed instructions iterated over during squash; mainly for profiling
system.switch_cpus.iq.iqSquashedInstsIssued      1405518                       # Number of squashed instructions issued
system.switch_cpus.iq.iqSquashedOperandsExamined    306466902                       # Number of squashed operands that are examined and possibly removed from graph
system.switch_cpus.iq.issued_per_cycle::samples    182360304                       # Number of insts issued each cycle
system.switch_cpus.iq.issued_per_cycle::mean     2.845666                       # Number of insts issued each cycle
system.switch_cpus.iq.issued_per_cycle::stdev     2.555528                       # Number of insts issued each cycle
system.switch_cpus.iq.issued_per_cycle::underflows            0      0.00%      0.00% # Number of insts issued each cycle
system.switch_cpus.iq.issued_per_cycle::0     54543320     29.91%     29.91% # Number of insts issued each cycle
system.switch_cpus.iq.issued_per_cycle::1     15993843      8.77%     38.68% # Number of insts issued each cycle
system.switch_cpus.iq.issued_per_cycle::2     19946489     10.94%     49.62% # Number of insts issued each cycle
system.switch_cpus.iq.issued_per_cycle::3     20304919     11.13%     60.75% # Number of insts issued each cycle
system.switch_cpus.iq.issued_per_cycle::4     19489599     10.69%     71.44% # Number of insts issued each cycle
system.switch_cpus.iq.issued_per_cycle::5     16544202      9.07%     80.51% # Number of insts issued each cycle
system.switch_cpus.iq.issued_per_cycle::6     15996300      8.77%     89.28% # Number of insts issued each cycle
system.switch_cpus.iq.issued_per_cycle::7     10855299      5.95%     95.24% # Number of insts issued each cycle
system.switch_cpus.iq.issued_per_cycle::8      8686333      4.76%    100.00% # Number of insts issued each cycle
system.switch_cpus.iq.issued_per_cycle::overflows            0      0.00%    100.00% # Number of insts issued each cycle
system.switch_cpus.iq.issued_per_cycle::min_value            0                       # Number of insts issued each cycle
system.switch_cpus.iq.issued_per_cycle::max_value            8                       # Number of insts issued each cycle
system.switch_cpus.iq.issued_per_cycle::total    182360304                       # Number of insts issued each cycle
system.switch_cpus.iq.rate                   2.844021                       # Inst issue rate
system.switch_cpus.iq.vec_alu_accesses              0                       # Number of vector alu accesses
system.switch_cpus.iq.vec_inst_queue_reads            0                       # Number of vector instruction queue reads
system.switch_cpus.iq.vec_inst_queue_wakeup_accesses            0                       # Number of vector instruction queue wakeup accesses
system.switch_cpus.iq.vec_inst_queue_writes            0                       # Number of vector instruction queue writes
system.switch_cpus.memDep0.conflictingLoads     14929836                       # Number of conflicting loads.
system.switch_cpus.memDep0.conflictingStores      6580800                       # Number of conflicting stores.
system.switch_cpus.memDep0.insertedLoads     94547411                       # Number of loads inserted to the mem dependence unit.
system.switch_cpus.memDep0.insertedStores     43401943                       # Number of stores inserted to the mem dependence unit.
system.switch_cpus.misc_regfile_reads       222515988                       # number of misc regfile reads
system.switch_cpus.misc_regfile_writes              1                       # number of misc regfile writes
system.switch_cpus.numCycles                182465815                       # number of cpu cycles simulated
system.switch_cpus.numWorkItemsCompleted            0                       # number of work items this cpu completed
system.switch_cpus.numWorkItemsStarted              0                       # number of work items this cpu started
system.switch_cpus.timesIdled                    3101                       # Number of times that the entire CPU went into an idle state and unscheduled itself
system.clk_domain.clock                           333                       # Clock period in ticks
system.cpu.dcache.demand_hits::.switch_cpus.data     98240633                       # number of demand (read+write) hits
system.cpu.dcache.demand_hits::total         98240633                       # number of demand (read+write) hits
system.cpu.dcache.overall_hits::.switch_cpus.data     98242481                       # number of overall hits
system.cpu.dcache.overall_hits::total        98242481                       # number of overall hits
system.cpu.dcache.demand_misses::.cpu.data            4                       # number of demand (read+write) misses
system.cpu.dcache.demand_misses::.switch_cpus.data       525662                       # number of demand (read+write) misses
system.cpu.dcache.demand_misses::total         525666                       # number of demand (read+write) misses
system.cpu.dcache.overall_misses::.cpu.data            4                       # number of overall misses
system.cpu.dcache.overall_misses::.switch_cpus.data       525784                       # number of overall misses
system.cpu.dcache.overall_misses::total        525788                       # number of overall misses
system.cpu.dcache.demand_miss_latency::.switch_cpus.data  21340427544                       # number of demand (read+write) miss cycles
system.cpu.dcache.demand_miss_latency::total  21340427544                       # number of demand (read+write) miss cycles
system.cpu.dcache.overall_miss_latency::.switch_cpus.data  21340427544                       # number of overall miss cycles
system.cpu.dcache.overall_miss_latency::total  21340427544                       # number of overall miss cycles
system.cpu.dcache.demand_accesses::.cpu.data            4                       # number of demand (read+write) accesses
system.cpu.dcache.demand_accesses::.switch_cpus.data     98766295                       # number of demand (read+write) accesses
system.cpu.dcache.demand_accesses::total     98766299                       # number of demand (read+write) accesses
system.cpu.dcache.overall_accesses::.cpu.data            4                       # number of overall (read+write) accesses
system.cpu.dcache.overall_accesses::.switch_cpus.data     98768265                       # number of overall (read+write) accesses
system.cpu.dcache.overall_accesses::total     98768269                       # number of overall (read+write) accesses
system.cpu.dcache.demand_miss_rate::.cpu.data            1                       # miss rate for demand accesses
system.cpu.dcache.demand_miss_rate::.switch_cpus.data     0.005322                       # miss rate for demand accesses
system.cpu.dcache.demand_miss_rate::total     0.005322                       # miss rate for demand accesses
system.cpu.dcache.overall_miss_rate::.cpu.data            1                       # miss rate for overall accesses
system.cpu.dcache.overall_miss_rate::.switch_cpus.data     0.005323                       # miss rate for overall accesses
system.cpu.dcache.overall_miss_rate::total     0.005323                       # miss rate for overall accesses
system.cpu.dcache.demand_avg_miss_latency::.switch_cpus.data 40597.242228                       # average overall miss latency
system.cpu.dcache.demand_avg_miss_latency::total 40596.933307                       # average overall miss latency
system.cpu.dcache.overall_avg_miss_latency::.switch_cpus.data 40587.822269                       # average overall miss latency
system.cpu.dcache.overall_avg_miss_latency::total 40587.513492                       # average overall miss latency
system.cpu.dcache.blocked_cycles::no_mshrs            0                       # number of cycles access was blocked
system.cpu.dcache.blocked_cycles::no_targets            0                       # number of cycles access was blocked
system.cpu.dcache.blocked::no_mshrs                 0                       # number of cycles access was blocked
system.cpu.dcache.blocked::no_targets               0                       # number of cycles access was blocked
system.cpu.dcache.avg_blocked_cycles::no_mshrs          nan                       # average number of cycles each access was blocked
system.cpu.dcache.avg_blocked_cycles::no_targets          nan                       # average number of cycles each access was blocked
system.cpu.dcache.writebacks::.writebacks       347291                       # number of writebacks
system.cpu.dcache.writebacks::total            347291                       # number of writebacks
system.cpu.dcache.demand_mshr_hits::.switch_cpus.data       177511                       # number of demand (read+write) MSHR hits
system.cpu.dcache.demand_mshr_hits::total       177511                       # number of demand (read+write) MSHR hits
system.cpu.dcache.overall_mshr_hits::.switch_cpus.data       177511                       # number of overall MSHR hits
system.cpu.dcache.overall_mshr_hits::total       177511                       # number of overall MSHR hits
system.cpu.dcache.demand_mshr_misses::.switch_cpus.data       348151                       # number of demand (read+write) MSHR misses
system.cpu.dcache.demand_mshr_misses::total       348151                       # number of demand (read+write) MSHR misses
system.cpu.dcache.overall_mshr_misses::.switch_cpus.data       348256                       # number of overall MSHR misses
system.cpu.dcache.overall_mshr_misses::total       348256                       # number of overall MSHR misses
system.cpu.dcache.demand_mshr_miss_latency::.switch_cpus.data   8702200089                       # number of demand (read+write) MSHR miss cycles
system.cpu.dcache.demand_mshr_miss_latency::total   8702200089                       # number of demand (read+write) MSHR miss cycles
system.cpu.dcache.overall_mshr_miss_latency::.switch_cpus.data   8702804484                       # number of overall MSHR miss cycles
system.cpu.dcache.overall_mshr_miss_latency::total   8702804484                       # number of overall MSHR miss cycles
system.cpu.dcache.demand_mshr_miss_rate::.switch_cpus.data     0.003525                       # mshr miss rate for demand accesses
system.cpu.dcache.demand_mshr_miss_rate::total     0.003525                       # mshr miss rate for demand accesses
system.cpu.dcache.overall_mshr_miss_rate::.switch_cpus.data     0.003526                       # mshr miss rate for overall accesses
system.cpu.dcache.overall_mshr_miss_rate::total     0.003526                       # mshr miss rate for overall accesses
system.cpu.dcache.demand_avg_mshr_miss_latency::.switch_cpus.data 24995.476357                       # average overall mshr miss latency
system.cpu.dcache.demand_avg_mshr_miss_latency::total 24995.476357                       # average overall mshr miss latency
system.cpu.dcache.overall_avg_mshr_miss_latency::.switch_cpus.data 24989.675652                       # average overall mshr miss latency
system.cpu.dcache.overall_avg_mshr_miss_latency::total 24989.675652                       # average overall mshr miss latency
system.cpu.dcache.replacements                 347291                       # number of replacements
system.cpu.dcache.ReadReq_hits::.switch_cpus.data     68471641                       # number of ReadReq hits
system.cpu.dcache.ReadReq_hits::total        68471641                       # number of ReadReq hits
system.cpu.dcache.ReadReq_misses::.cpu.data            4                       # number of ReadReq misses
system.cpu.dcache.ReadReq_misses::.switch_cpus.data       413981                       # number of ReadReq misses
system.cpu.dcache.ReadReq_misses::total        413985                       # number of ReadReq misses
system.cpu.dcache.ReadReq_miss_latency::.switch_cpus.data  20726717202                       # number of ReadReq miss cycles
system.cpu.dcache.ReadReq_miss_latency::total  20726717202                       # number of ReadReq miss cycles
system.cpu.dcache.ReadReq_accesses::.cpu.data            4                       # number of ReadReq accesses(hits+misses)
system.cpu.dcache.ReadReq_accesses::.switch_cpus.data     68885622                       # number of ReadReq accesses(hits+misses)
system.cpu.dcache.ReadReq_accesses::total     68885626                       # number of ReadReq accesses(hits+misses)
system.cpu.dcache.ReadReq_miss_rate::.cpu.data            1                       # miss rate for ReadReq accesses
system.cpu.dcache.ReadReq_miss_rate::.switch_cpus.data     0.006010                       # miss rate for ReadReq accesses
system.cpu.dcache.ReadReq_miss_rate::total     0.006010                       # miss rate for ReadReq accesses
system.cpu.dcache.ReadReq_avg_miss_latency::.switch_cpus.data 50066.832058                       # average ReadReq miss latency
system.cpu.dcache.ReadReq_avg_miss_latency::total 50066.348302                       # average ReadReq miss latency
system.cpu.dcache.ReadReq_mshr_hits::.switch_cpus.data       177171                       # number of ReadReq MSHR hits
system.cpu.dcache.ReadReq_mshr_hits::total       177171                       # number of ReadReq MSHR hits
system.cpu.dcache.ReadReq_mshr_misses::.switch_cpus.data       236810                       # number of ReadReq MSHR misses
system.cpu.dcache.ReadReq_mshr_misses::total       236810                       # number of ReadReq MSHR misses
system.cpu.dcache.ReadReq_mshr_miss_latency::.switch_cpus.data   8126982882                       # number of ReadReq MSHR miss cycles
system.cpu.dcache.ReadReq_mshr_miss_latency::total   8126982882                       # number of ReadReq MSHR miss cycles
system.cpu.dcache.ReadReq_mshr_miss_rate::.switch_cpus.data     0.003438                       # mshr miss rate for ReadReq accesses
system.cpu.dcache.ReadReq_mshr_miss_rate::total     0.003438                       # mshr miss rate for ReadReq accesses
system.cpu.dcache.ReadReq_avg_mshr_miss_latency::.switch_cpus.data 34318.579798                       # average ReadReq mshr miss latency
system.cpu.dcache.ReadReq_avg_mshr_miss_latency::total 34318.579798                       # average ReadReq mshr miss latency
system.cpu.dcache.WriteReq_hits::.switch_cpus.data     29768992                       # number of WriteReq hits
system.cpu.dcache.WriteReq_hits::total       29768992                       # number of WriteReq hits
system.cpu.dcache.WriteReq_misses::.switch_cpus.data       111681                       # number of WriteReq misses
system.cpu.dcache.WriteReq_misses::total       111681                       # number of WriteReq misses
system.cpu.dcache.WriteReq_miss_latency::.switch_cpus.data    613710342                       # number of WriteReq miss cycles
system.cpu.dcache.WriteReq_miss_latency::total    613710342                       # number of WriteReq miss cycles
system.cpu.dcache.WriteReq_accesses::.switch_cpus.data     29880673                       # number of WriteReq accesses(hits+misses)
system.cpu.dcache.WriteReq_accesses::total     29880673                       # number of WriteReq accesses(hits+misses)
system.cpu.dcache.WriteReq_miss_rate::.switch_cpus.data     0.003738                       # miss rate for WriteReq accesses
system.cpu.dcache.WriteReq_miss_rate::total     0.003738                       # miss rate for WriteReq accesses
system.cpu.dcache.WriteReq_avg_miss_latency::.switch_cpus.data  5495.208155                       # average WriteReq miss latency
system.cpu.dcache.WriteReq_avg_miss_latency::total  5495.208155                       # average WriteReq miss latency
system.cpu.dcache.WriteReq_mshr_hits::.switch_cpus.data          340                       # number of WriteReq MSHR hits
system.cpu.dcache.WriteReq_mshr_hits::total          340                       # number of WriteReq MSHR hits
system.cpu.dcache.WriteReq_mshr_misses::.switch_cpus.data       111341                       # number of WriteReq MSHR misses
system.cpu.dcache.WriteReq_mshr_misses::total       111341                       # number of WriteReq MSHR misses
system.cpu.dcache.WriteReq_mshr_miss_latency::.switch_cpus.data    575217207                       # number of WriteReq MSHR miss cycles
system.cpu.dcache.WriteReq_mshr_miss_latency::total    575217207                       # number of WriteReq MSHR miss cycles
system.cpu.dcache.WriteReq_mshr_miss_rate::.switch_cpus.data     0.003726                       # mshr miss rate for WriteReq accesses
system.cpu.dcache.WriteReq_mshr_miss_rate::total     0.003726                       # mshr miss rate for WriteReq accesses
system.cpu.dcache.WriteReq_avg_mshr_miss_latency::.switch_cpus.data  5166.265859                       # average WriteReq mshr miss latency
system.cpu.dcache.WriteReq_avg_mshr_miss_latency::total  5166.265859                       # average WriteReq mshr miss latency
system.cpu.dcache.SoftPFReq_hits::.switch_cpus.data         1848                       # number of SoftPFReq hits
system.cpu.dcache.SoftPFReq_hits::total          1848                       # number of SoftPFReq hits
system.cpu.dcache.SoftPFReq_misses::.switch_cpus.data          122                       # number of SoftPFReq misses
system.cpu.dcache.SoftPFReq_misses::total          122                       # number of SoftPFReq misses
system.cpu.dcache.SoftPFReq_accesses::.switch_cpus.data         1970                       # number of SoftPFReq accesses(hits+misses)
system.cpu.dcache.SoftPFReq_accesses::total         1970                       # number of SoftPFReq accesses(hits+misses)
system.cpu.dcache.SoftPFReq_miss_rate::.switch_cpus.data     0.061929                       # miss rate for SoftPFReq accesses
system.cpu.dcache.SoftPFReq_miss_rate::total     0.061929                       # miss rate for SoftPFReq accesses
system.cpu.dcache.SoftPFReq_mshr_misses::.switch_cpus.data          105                       # number of SoftPFReq MSHR misses
system.cpu.dcache.SoftPFReq_mshr_misses::total          105                       # number of SoftPFReq MSHR misses
system.cpu.dcache.SoftPFReq_mshr_miss_latency::.switch_cpus.data       604395                       # number of SoftPFReq MSHR miss cycles
system.cpu.dcache.SoftPFReq_mshr_miss_latency::total       604395                       # number of SoftPFReq MSHR miss cycles
system.cpu.dcache.SoftPFReq_mshr_miss_rate::.switch_cpus.data     0.053299                       # mshr miss rate for SoftPFReq accesses
system.cpu.dcache.SoftPFReq_mshr_miss_rate::total     0.053299                       # mshr miss rate for SoftPFReq accesses
system.cpu.dcache.SoftPFReq_avg_mshr_miss_latency::.switch_cpus.data  5756.142857                       # average SoftPFReq mshr miss latency
system.cpu.dcache.SoftPFReq_avg_mshr_miss_latency::total  5756.142857                       # average SoftPFReq mshr miss latency
system.cpu.dcache.power_state.pwrStateResidencyTicks::UNDEFINED 16607143760139                       # Cumulative time (in ticks) in various power states
system.cpu.dcache.tags.tagsinuse           511.591073                       # Cycle average of tags in use
system.cpu.dcache.tags.total_refs            98590789                       # Total number of references to valid blocks.
system.cpu.dcache.tags.sampled_refs            347803                       # Sample count of references to valid blocks.
system.cpu.dcache.tags.avg_refs            283.467334                       # Average number of references to valid blocks.
system.cpu.dcache.tags.warmup_cycle      16546382634753                       # Cycle when the warmup percentage was hit.
system.cpu.dcache.tags.occ_blocks::.cpu.data     2.003478                       # Average occupied blocks per requestor
system.cpu.dcache.tags.occ_blocks::.switch_cpus.data   509.587595                       # Average occupied blocks per requestor
system.cpu.dcache.tags.occ_percent::.cpu.data     0.003913                       # Average percentage of cache occupancy
system.cpu.dcache.tags.occ_percent::.switch_cpus.data     0.995288                       # Average percentage of cache occupancy
system.cpu.dcache.tags.occ_percent::total     0.999201                       # Average percentage of cache occupancy
system.cpu.dcache.tags.occ_task_id_blocks::1024          512                       # Occupied blocks per task id
system.cpu.dcache.tags.age_task_id_blocks_1024::0           58                       # Occupied blocks per task id
system.cpu.dcache.tags.age_task_id_blocks_1024::1          193                       # Occupied blocks per task id
system.cpu.dcache.tags.age_task_id_blocks_1024::2          146                       # Occupied blocks per task id
system.cpu.dcache.tags.age_task_id_blocks_1024::3           71                       # Occupied blocks per task id
system.cpu.dcache.tags.age_task_id_blocks_1024::4           44                       # Occupied blocks per task id
system.cpu.dcache.tags.occ_task_id_percent::1024            1                       # Percentage of cache occupancy per task id
system.cpu.dcache.tags.tag_accesses         790493955                       # Number of tag accesses
system.cpu.dcache.tags.data_accesses        790493955                       # Number of data accesses
system.cpu.dcache.tags.power_state.pwrStateResidencyTicks::UNDEFINED 16607143760139                       # Cumulative time (in ticks) in various power states
system.cpu.dtb.rdAccesses                           4                       # TLB accesses on read requests
system.cpu.dtb.wrAccesses                           0                       # TLB accesses on write requests
system.cpu.dtb.rdMisses                             0                       # TLB misses on read requests
system.cpu.dtb.wrMisses                             0                       # TLB misses on write requests
system.cpu.dtb.walker.power_state.pwrStateResidencyTicks::UNDEFINED 16607143760139                       # Cumulative time (in ticks) in various power states
system.cpu.icache.demand_hits::.cpu.inst           20                       # number of demand (read+write) hits
system.cpu.icache.demand_hits::.switch_cpus.inst     66036486                       # number of demand (read+write) hits
system.cpu.icache.demand_hits::total         66036506                       # number of demand (read+write) hits
system.cpu.icache.overall_hits::.cpu.inst           20                       # number of overall hits
system.cpu.icache.overall_hits::.switch_cpus.inst     66036486                       # number of overall hits
system.cpu.icache.overall_hits::total        66036506                       # number of overall hits
system.cpu.icache.demand_misses::.cpu.inst            3                       # number of demand (read+write) misses
system.cpu.icache.demand_misses::.switch_cpus.inst       203400                       # number of demand (read+write) misses
system.cpu.icache.demand_misses::total         203403                       # number of demand (read+write) misses
system.cpu.icache.overall_misses::.cpu.inst            3                       # number of overall misses
system.cpu.icache.overall_misses::.switch_cpus.inst       203400                       # number of overall misses
system.cpu.icache.overall_misses::total        203403                       # number of overall misses
system.cpu.icache.demand_miss_latency::.switch_cpus.inst   1020359286                       # number of demand (read+write) miss cycles
system.cpu.icache.demand_miss_latency::total   1020359286                       # number of demand (read+write) miss cycles
system.cpu.icache.overall_miss_latency::.switch_cpus.inst   1020359286                       # number of overall miss cycles
system.cpu.icache.overall_miss_latency::total   1020359286                       # number of overall miss cycles
system.cpu.icache.demand_accesses::.cpu.inst           23                       # number of demand (read+write) accesses
system.cpu.icache.demand_accesses::.switch_cpus.inst     66239886                       # number of demand (read+write) accesses
system.cpu.icache.demand_accesses::total     66239909                       # number of demand (read+write) accesses
system.cpu.icache.overall_accesses::.cpu.inst           23                       # number of overall (read+write) accesses
system.cpu.icache.overall_accesses::.switch_cpus.inst     66239886                       # number of overall (read+write) accesses
system.cpu.icache.overall_accesses::total     66239909                       # number of overall (read+write) accesses
system.cpu.icache.demand_miss_rate::.cpu.inst     0.130435                       # miss rate for demand accesses
system.cpu.icache.demand_miss_rate::.switch_cpus.inst     0.003071                       # miss rate for demand accesses
system.cpu.icache.demand_miss_rate::total     0.003071                       # miss rate for demand accesses
system.cpu.icache.overall_miss_rate::.cpu.inst     0.130435                       # miss rate for overall accesses
system.cpu.icache.overall_miss_rate::.switch_cpus.inst     0.003071                       # miss rate for overall accesses
system.cpu.icache.overall_miss_rate::total     0.003071                       # miss rate for overall accesses
system.cpu.icache.demand_avg_miss_latency::.switch_cpus.inst  5016.515664                       # average overall miss latency
system.cpu.icache.demand_avg_miss_latency::total  5016.441675                       # average overall miss latency
system.cpu.icache.overall_avg_miss_latency::.switch_cpus.inst  5016.515664                       # average overall miss latency
system.cpu.icache.overall_avg_miss_latency::total  5016.441675                       # average overall miss latency
system.cpu.icache.blocked_cycles::no_mshrs            0                       # number of cycles access was blocked
system.cpu.icache.blocked_cycles::no_targets            0                       # number of cycles access was blocked
system.cpu.icache.blocked::no_mshrs                 0                       # number of cycles access was blocked
system.cpu.icache.blocked::no_targets               0                       # number of cycles access was blocked
system.cpu.icache.avg_blocked_cycles::no_mshrs          nan                       # average number of cycles each access was blocked
system.cpu.icache.avg_blocked_cycles::no_targets          nan                       # average number of cycles each access was blocked
system.cpu.icache.writebacks::.writebacks       195996                       # number of writebacks
system.cpu.icache.writebacks::total            195996                       # number of writebacks
system.cpu.icache.demand_mshr_hits::.switch_cpus.inst         6884                       # number of demand (read+write) MSHR hits
system.cpu.icache.demand_mshr_hits::total         6884                       # number of demand (read+write) MSHR hits
system.cpu.icache.overall_mshr_hits::.switch_cpus.inst         6884                       # number of overall MSHR hits
system.cpu.icache.overall_mshr_hits::total         6884                       # number of overall MSHR hits
system.cpu.icache.demand_mshr_misses::.switch_cpus.inst       196516                       # number of demand (read+write) MSHR misses
system.cpu.icache.demand_mshr_misses::total       196516                       # number of demand (read+write) MSHR misses
system.cpu.icache.overall_mshr_misses::.switch_cpus.inst       196516                       # number of overall MSHR misses
system.cpu.icache.overall_mshr_misses::total       196516                       # number of overall MSHR misses
system.cpu.icache.demand_mshr_miss_latency::.switch_cpus.inst    926176896                       # number of demand (read+write) MSHR miss cycles
system.cpu.icache.demand_mshr_miss_latency::total    926176896                       # number of demand (read+write) MSHR miss cycles
system.cpu.icache.overall_mshr_miss_latency::.switch_cpus.inst    926176896                       # number of overall MSHR miss cycles
system.cpu.icache.overall_mshr_miss_latency::total    926176896                       # number of overall MSHR miss cycles
system.cpu.icache.demand_mshr_miss_rate::.switch_cpus.inst     0.002967                       # mshr miss rate for demand accesses
system.cpu.icache.demand_mshr_miss_rate::total     0.002967                       # mshr miss rate for demand accesses
system.cpu.icache.overall_mshr_miss_rate::.switch_cpus.inst     0.002967                       # mshr miss rate for overall accesses
system.cpu.icache.overall_mshr_miss_rate::total     0.002967                       # mshr miss rate for overall accesses
system.cpu.icache.demand_avg_mshr_miss_latency::.switch_cpus.inst  4712.984673                       # average overall mshr miss latency
system.cpu.icache.demand_avg_mshr_miss_latency::total  4712.984673                       # average overall mshr miss latency
system.cpu.icache.overall_avg_mshr_miss_latency::.switch_cpus.inst  4712.984673                       # average overall mshr miss latency
system.cpu.icache.overall_avg_mshr_miss_latency::total  4712.984673                       # average overall mshr miss latency
system.cpu.icache.replacements                 195996                       # number of replacements
system.cpu.icache.ReadReq_hits::.cpu.inst           20                       # number of ReadReq hits
system.cpu.icache.ReadReq_hits::.switch_cpus.inst     66036486                       # number of ReadReq hits
system.cpu.icache.ReadReq_hits::total        66036506                       # number of ReadReq hits
system.cpu.icache.ReadReq_misses::.cpu.inst            3                       # number of ReadReq misses
system.cpu.icache.ReadReq_misses::.switch_cpus.inst       203400                       # number of ReadReq misses
system.cpu.icache.ReadReq_misses::total        203403                       # number of ReadReq misses
system.cpu.icache.ReadReq_miss_latency::.switch_cpus.inst   1020359286                       # number of ReadReq miss cycles
system.cpu.icache.ReadReq_miss_latency::total   1020359286                       # number of ReadReq miss cycles
system.cpu.icache.ReadReq_accesses::.cpu.inst           23                       # number of ReadReq accesses(hits+misses)
system.cpu.icache.ReadReq_accesses::.switch_cpus.inst     66239886                       # number of ReadReq accesses(hits+misses)
system.cpu.icache.ReadReq_accesses::total     66239909                       # number of ReadReq accesses(hits+misses)
system.cpu.icache.ReadReq_miss_rate::.cpu.inst     0.130435                       # miss rate for ReadReq accesses
system.cpu.icache.ReadReq_miss_rate::.switch_cpus.inst     0.003071                       # miss rate for ReadReq accesses
system.cpu.icache.ReadReq_miss_rate::total     0.003071                       # miss rate for ReadReq accesses
system.cpu.icache.ReadReq_avg_miss_latency::.switch_cpus.inst  5016.515664                       # average ReadReq miss latency
system.cpu.icache.ReadReq_avg_miss_latency::total  5016.441675                       # average ReadReq miss latency
system.cpu.icache.ReadReq_mshr_hits::.switch_cpus.inst         6884                       # number of ReadReq MSHR hits
system.cpu.icache.ReadReq_mshr_hits::total         6884                       # number of ReadReq MSHR hits
system.cpu.icache.ReadReq_mshr_misses::.switch_cpus.inst       196516                       # number of ReadReq MSHR misses
system.cpu.icache.ReadReq_mshr_misses::total       196516                       # number of ReadReq MSHR misses
system.cpu.icache.ReadReq_mshr_miss_latency::.switch_cpus.inst    926176896                       # number of ReadReq MSHR miss cycles
system.cpu.icache.ReadReq_mshr_miss_latency::total    926176896                       # number of ReadReq MSHR miss cycles
system.cpu.icache.ReadReq_mshr_miss_rate::.switch_cpus.inst     0.002967                       # mshr miss rate for ReadReq accesses
system.cpu.icache.ReadReq_mshr_miss_rate::total     0.002967                       # mshr miss rate for ReadReq accesses
system.cpu.icache.ReadReq_avg_mshr_miss_latency::.switch_cpus.inst  4712.984673                       # average ReadReq mshr miss latency
system.cpu.icache.ReadReq_avg_mshr_miss_latency::total  4712.984673                       # average ReadReq mshr miss latency
system.cpu.icache.power_state.pwrStateResidencyTicks::UNDEFINED 16607143760139                       # Cumulative time (in ticks) in various power states
system.cpu.icache.tags.tagsinuse           511.510726                       # Cycle average of tags in use
system.cpu.icache.tags.total_refs            66233025                       # Total number of references to valid blocks.
system.cpu.icache.tags.sampled_refs            196519                       # Sample count of references to valid blocks.
system.cpu.icache.tags.avg_refs            337.031152                       # Average number of references to valid blocks.
system.cpu.icache.tags.warmup_cycle      16546382633754                       # Cycle when the warmup percentage was hit.
system.cpu.icache.tags.occ_blocks::.cpu.inst     0.527509                       # Average occupied blocks per requestor
system.cpu.icache.tags.occ_blocks::.switch_cpus.inst   510.983217                       # Average occupied blocks per requestor
system.cpu.icache.tags.occ_percent::.cpu.inst     0.001030                       # Average percentage of cache occupancy
system.cpu.icache.tags.occ_percent::.switch_cpus.inst     0.998014                       # Average percentage of cache occupancy
system.cpu.icache.tags.occ_percent::total     0.999044                       # Average percentage of cache occupancy
system.cpu.icache.tags.occ_task_id_blocks::1024          512                       # Occupied blocks per task id
system.cpu.icache.tags.age_task_id_blocks_1024::0           60                       # Occupied blocks per task id
system.cpu.icache.tags.age_task_id_blocks_1024::1           69                       # Occupied blocks per task id
system.cpu.icache.tags.age_task_id_blocks_1024::2           77                       # Occupied blocks per task id
system.cpu.icache.tags.age_task_id_blocks_1024::3          117                       # Occupied blocks per task id
system.cpu.icache.tags.age_task_id_blocks_1024::4          189                       # Occupied blocks per task id
system.cpu.icache.tags.occ_task_id_percent::1024            1                       # Percentage of cache occupancy per task id
system.cpu.icache.tags.tag_accesses         530115791                       # Number of tag accesses
system.cpu.icache.tags.data_accesses        530115791                       # Number of data accesses
system.cpu.icache.tags.power_state.pwrStateResidencyTicks::UNDEFINED 16607143760139                       # Cumulative time (in ticks) in various power states
system.cpu.interrupts.clk_domain.clock           5328                       # Clock period in ticks
system.cpu.itb.rdAccesses                           0                       # TLB accesses on read requests
system.cpu.itb.wrAccesses                          23                       # TLB accesses on write requests
system.cpu.itb.rdMisses                             0                       # TLB misses on read requests
system.cpu.itb.wrMisses                             0                       # TLB misses on write requests
system.cpu.itb.walker.power_state.pwrStateResidencyTicks::UNDEFINED 16607143760139                       # Cumulative time (in ticks) in various power states
system.cpu.l2bus.trans_dist::ReadResp          433419                       # Transaction distribution
system.cpu.l2bus.trans_dist::WritebackDirty       252358                       # Transaction distribution
system.cpu.l2bus.trans_dist::WritebackClean       372354                       # Transaction distribution
system.cpu.l2bus.trans_dist::UpgradeReq           464                       # Transaction distribution
system.cpu.l2bus.trans_dist::UpgradeResp          464                       # Transaction distribution
system.cpu.l2bus.trans_dist::ReadExReq         110903                       # Transaction distribution
system.cpu.l2bus.trans_dist::ReadExResp        110903                       # Transaction distribution
system.cpu.l2bus.trans_dist::ReadSharedReq       433419                       # Transaction distribution
system.cpu.l2bus.pkt_count_system.cpu.icache.mem_side_port::system.cpu.l2cache.cpu_side_port       589021                       # Packet count per connected requestor and responder (bytes)
system.cpu.l2bus.pkt_count_system.cpu.dcache.mem_side_port::system.cpu.l2cache.cpu_side_port      1043825                       # Packet count per connected requestor and responder (bytes)
system.cpu.l2bus.pkt_count::total             1632846                       # Packet count per connected requestor and responder (bytes)
system.cpu.l2bus.pkt_size_system.cpu.icache.mem_side_port::system.cpu.l2cache.cpu_side_port     25120128                       # Cumulative packet size per connected requestor and responder (bytes)
system.cpu.l2bus.pkt_size_system.cpu.dcache.mem_side_port::system.cpu.l2cache.cpu_side_port     44486016                       # Cumulative packet size per connected requestor and responder (bytes)
system.cpu.l2bus.pkt_size::total             69606144                       # Cumulative packet size per connected requestor and responder (bytes)
system.cpu.l2bus.snoops                         81438                       # Total snoops (count)
system.cpu.l2bus.snoopTraffic                 5212032                       # Total snoop traffic (bytes)
system.cpu.l2bus.snoop_fanout::samples         626211                       # Request fanout histogram
system.cpu.l2bus.snoop_fanout::mean          0.006277                       # Request fanout histogram
system.cpu.l2bus.snoop_fanout::stdev         0.078981                       # Request fanout histogram
system.cpu.l2bus.snoop_fanout::underflows            0      0.00%      0.00% # Request fanout histogram
system.cpu.l2bus.snoop_fanout::0               622280     99.37%     99.37% # Request fanout histogram
system.cpu.l2bus.snoop_fanout::1                 3931      0.63%    100.00% # Request fanout histogram
system.cpu.l2bus.snoop_fanout::2                    0      0.00%    100.00% # Request fanout histogram
system.cpu.l2bus.snoop_fanout::3                    0      0.00%    100.00% # Request fanout histogram
system.cpu.l2bus.snoop_fanout::overflows            0      0.00%    100.00% # Request fanout histogram
system.cpu.l2bus.snoop_fanout::min_value            0                       # Request fanout histogram
system.cpu.l2bus.snoop_fanout::max_value            1                       # Request fanout histogram
system.cpu.l2bus.snoop_fanout::total           626211                       # Request fanout histogram
system.cpu.l2bus.power_state.pwrStateResidencyTicks::UNDEFINED 16607143760139                       # Cumulative time (in ticks) in various power states
system.cpu.l2bus.reqLayer0.occupancy        724155120                       # Layer occupancy (ticks)
system.cpu.l2bus.reqLayer0.utilization            1.2                       # Layer utilization (%)
system.cpu.l2bus.respLayer0.occupancy       196339072                       # Layer occupancy (ticks)
system.cpu.l2bus.respLayer0.utilization           0.3                       # Layer utilization (%)
system.cpu.l2bus.respLayer1.occupancy       347611689                       # Layer occupancy (ticks)
system.cpu.l2bus.respLayer1.utilization           0.6                       # Layer utilization (%)
system.cpu.l2cache.demand_hits::.switch_cpus.inst       194929                       # number of demand (read+write) hits
system.cpu.l2cache.demand_hits::.switch_cpus.data       266223                       # number of demand (read+write) hits
system.cpu.l2cache.demand_hits::total          461152                       # number of demand (read+write) hits
system.cpu.l2cache.overall_hits::.switch_cpus.inst       194929                       # number of overall hits
system.cpu.l2cache.overall_hits::.switch_cpus.data       266223                       # number of overall hits
system.cpu.l2cache.overall_hits::total         461152                       # number of overall hits
system.cpu.l2cache.demand_misses::.cpu.inst            3                       # number of demand (read+write) misses
system.cpu.l2cache.demand_misses::.cpu.data            4                       # number of demand (read+write) misses
system.cpu.l2cache.demand_misses::.switch_cpus.inst         1574                       # number of demand (read+write) misses
system.cpu.l2cache.demand_misses::.switch_cpus.data        81576                       # number of demand (read+write) misses
system.cpu.l2cache.demand_misses::total         83157                       # number of demand (read+write) misses
system.cpu.l2cache.overall_misses::.cpu.inst            3                       # number of overall misses
system.cpu.l2cache.overall_misses::.cpu.data            4                       # number of overall misses
system.cpu.l2cache.overall_misses::.switch_cpus.inst         1574                       # number of overall misses
system.cpu.l2cache.overall_misses::.switch_cpus.data        81576                       # number of overall misses
system.cpu.l2cache.overall_misses::total        83157                       # number of overall misses
system.cpu.l2cache.demand_miss_latency::.switch_cpus.inst     70540389                       # number of demand (read+write) miss cycles
system.cpu.l2cache.demand_miss_latency::.switch_cpus.data   7462192338                       # number of demand (read+write) miss cycles
system.cpu.l2cache.demand_miss_latency::total   7532732727                       # number of demand (read+write) miss cycles
system.cpu.l2cache.overall_miss_latency::.switch_cpus.inst     70540389                       # number of overall miss cycles
system.cpu.l2cache.overall_miss_latency::.switch_cpus.data   7462192338                       # number of overall miss cycles
system.cpu.l2cache.overall_miss_latency::total   7532732727                       # number of overall miss cycles
system.cpu.l2cache.demand_accesses::.cpu.inst            3                       # number of demand (read+write) accesses
system.cpu.l2cache.demand_accesses::.cpu.data            4                       # number of demand (read+write) accesses
system.cpu.l2cache.demand_accesses::.switch_cpus.inst       196503                       # number of demand (read+write) accesses
system.cpu.l2cache.demand_accesses::.switch_cpus.data       347799                       # number of demand (read+write) accesses
system.cpu.l2cache.demand_accesses::total       544309                       # number of demand (read+write) accesses
system.cpu.l2cache.overall_accesses::.cpu.inst            3                       # number of overall (read+write) accesses
system.cpu.l2cache.overall_accesses::.cpu.data            4                       # number of overall (read+write) accesses
system.cpu.l2cache.overall_accesses::.switch_cpus.inst       196503                       # number of overall (read+write) accesses
system.cpu.l2cache.overall_accesses::.switch_cpus.data       347799                       # number of overall (read+write) accesses
system.cpu.l2cache.overall_accesses::total       544309                       # number of overall (read+write) accesses
system.cpu.l2cache.demand_miss_rate::.cpu.inst            1                       # miss rate for demand accesses
system.cpu.l2cache.demand_miss_rate::.cpu.data            1                       # miss rate for demand accesses
system.cpu.l2cache.demand_miss_rate::.switch_cpus.inst     0.008010                       # miss rate for demand accesses
system.cpu.l2cache.demand_miss_rate::.switch_cpus.data     0.234549                       # miss rate for demand accesses
system.cpu.l2cache.demand_miss_rate::total     0.152775                       # miss rate for demand accesses
system.cpu.l2cache.overall_miss_rate::.cpu.inst            1                       # miss rate for overall accesses
system.cpu.l2cache.overall_miss_rate::.cpu.data            1                       # miss rate for overall accesses
system.cpu.l2cache.overall_miss_rate::.switch_cpus.inst     0.008010                       # miss rate for overall accesses
system.cpu.l2cache.overall_miss_rate::.switch_cpus.data     0.234549                       # miss rate for overall accesses
system.cpu.l2cache.overall_miss_rate::total     0.152775                       # miss rate for overall accesses
system.cpu.l2cache.demand_avg_miss_latency::.switch_cpus.inst 44816.003177                       # average overall miss latency
system.cpu.l2cache.demand_avg_miss_latency::.switch_cpus.data 91475.340026                       # average overall miss latency
system.cpu.l2cache.demand_avg_miss_latency::total 90584.469461                       # average overall miss latency
system.cpu.l2cache.overall_avg_miss_latency::.switch_cpus.inst 44816.003177                       # average overall miss latency
system.cpu.l2cache.overall_avg_miss_latency::.switch_cpus.data 91475.340026                       # average overall miss latency
system.cpu.l2cache.overall_avg_miss_latency::total 90584.469461                       # average overall miss latency
system.cpu.l2cache.blocked_cycles::no_mshrs            0                       # number of cycles access was blocked
system.cpu.l2cache.blocked_cycles::no_targets            0                       # number of cycles access was blocked
system.cpu.l2cache.blocked::no_mshrs                0                       # number of cycles access was blocked
system.cpu.l2cache.blocked::no_targets              0                       # number of cycles access was blocked
system.cpu.l2cache.avg_blocked_cycles::no_mshrs          nan                       # average number of cycles each access was blocked
system.cpu.l2cache.avg_blocked_cycles::no_targets          nan                       # average number of cycles each access was blocked
system.cpu.l2cache.writebacks::.writebacks        81425                       # number of writebacks
system.cpu.l2cache.writebacks::total            81425                       # number of writebacks
system.cpu.l2cache.demand_mshr_misses::.switch_cpus.inst         1574                       # number of demand (read+write) MSHR misses
system.cpu.l2cache.demand_mshr_misses::.switch_cpus.data        81576                       # number of demand (read+write) MSHR misses
system.cpu.l2cache.demand_mshr_misses::total        83150                       # number of demand (read+write) MSHR misses
system.cpu.l2cache.overall_mshr_misses::.switch_cpus.inst         1574                       # number of overall MSHR misses
system.cpu.l2cache.overall_mshr_misses::.switch_cpus.data        81576                       # number of overall MSHR misses
[...]
system.switch_cpus.commit.numCommittedDist::1     32279935     20.75%     50.63% # Number of insts commited each cycle
system.switch_cpus.commit.numCommittedDist::2     17349467     11.15%     61.78% # Number of insts commited each cycle
system.switch_cpus.commit.numCommittedDist::3     16215252     10.42%     72.21% # Number of insts commited each cycle
system.switch_cpus.commit.numCommittedDist::4      8754104      5.63%     77.84% # Number of insts commited each cycle
system.switch_cpus.commit.numCommittedDist::5      4361707      2.80%     80.64% # Number of insts commited each cycle
system.switch_cpus.commit.numCommittedDist::6      3357445      2.16%     82.80% # Number of insts commited each cycle
system.switch_cpus.commit.numCommittedDist::7      2534130      1.63%     84.43% # Number of insts commited each cycle
system.switch_cpus.commit.numCommittedDist::8     24225464     15.57%    100.00% # Number of insts commited each cycle
system.switch_cpus.commit.numCommittedDist::overflows            0      0.00%    100.00% # Number of insts commited each cycle
system.switch_cpus.commit.numCommittedDist::min_value            0                       # Number of insts commited each cycle
system.switch_cpus.commit.numCommittedDist::max_value            8                       # Number of insts commited each cycle
system.switch_cpus.commit.numCommittedDist::total    155561417                       # Number of insts commited each cycle
system.switch_cpus.commit.instsCommitted    250000000                       # Number of instructions committed
system.switch_cpus.commit.opsCommitted      404136868                       # Number of ops (including micro ops) committed
system.switch_cpus.commit.memRefs            93132169                       # Number of memory references committed
system.switch_cpus.commit.loads              63251494                       # Number of loads committed
system.switch_cpus.commit.amos                      0                       # Number of atomic instructions committed
system.switch_cpus.commit.membars                   0                       # Number of memory barriers committed
system.switch_cpus.commit.branches           36138617                       # Number of branches committed
system.switch_cpus.commit.vector                    0                       # Number of committed Vector instructions.
system.switch_cpus.commit.floating             459072                       # Number of committed floating point instructions.
system.switch_cpus.commit.integer           402752498                       # Number of committed integer instructions.
system.switch_cpus.commit.functionCalls       4796486                       # Number of function calls committed.
system.switch_cpus.commit.committedInstType_0::No_OpClass       946334      0.23%      0.23% # Class of committed instruction
system.switch_cpus.commit.committedInstType_0::IntAlu    305869973     75.68%     75.92% # Class of committed instruction
system.switch_cpus.commit.committedInstType_0::IntMult      3318339      0.82%     76.74% # Class of committed instruction
system.switch_cpus.commit.committedInstType_0::IntDiv       870053      0.22%     76.96% # Class of committed instruction
system.switch_cpus.commit.committedInstType_0::FloatAdd            0      0.00%     76.96% # Class of committed instruction
system.switch_cpus.commit.committedInstType_0::FloatCmp            0      0.00%     76.96% # Class of committed instruction
system.switch_cpus.commit.committedInstType_0::FloatCvt            0      0.00%     76.96% # Class of committed instruction
system.switch_cpus.commit.committedInstType_0::FloatMult            0      0.00%     76.96% # Class of committed instruction
system.switch_cpus.commit.committedInstType_0::FloatMultAcc            0      0.00%     76.96% # Class of committed instruction
system.switch_cpus.commit.committedInstType_0::FloatDiv            0      0.00%     76.96% # Class of committed instruction
system.switch_cpus.commit.committedInstType_0::FloatMisc            0      0.00%     76.96% # Class of committed instruction
system.switch_cpus.commit.committedInstType_0::FloatSqrt            0      0.00%     76.96% # Class of committed instruction
system.switch_cpus.commit.committedInstType_0::SimdAdd            0      0.00%     76.96% # Class of committed instruction
system.switch_cpus.commit.committedInstType_0::SimdAddAcc            0      0.00%     76.96% # Class of committed instruction
system.switch_cpus.commit.committedInstType_0::SimdAlu            0      0.00%     76.96% # Class of committed instruction
system.switch_cpus.commit.committedInstType_0::SimdCmp            0      0.00%     76.96% # Class of committed instruction
system.switch_cpus.commit.committedInstType_0::SimdCvt            0      0.00%     76.96% # Class of committed instruction
system.switch_cpus.commit.committedInstType_0::SimdMisc            0      0.00%     76.96% # Class of committed instruction
system.switch_cpus.commit.committedInstType_0::SimdMult            0      0.00%     76.96% # Class of committed instruction
system.switch_cpus.commit.committedInstType_0::SimdMultAcc            0      0.00%     76.96% # Class of committed instruction
system.switch_cpus.commit.committedInstType_0::SimdShift            0      0.00%     76.96% # Class of committed instruction
system.switch_cpus.commit.committedInstType_0::SimdShiftAcc            0      0.00%     76.96% # Class of committed instruction
system.switch_cpus.commit.committedInstType_0::SimdDiv            0      0.00%     76.96% # Class of committed instruction
system.switch_cpus.commit.committedInstType_0::SimdSqrt            0      0.00%     76.96% # Class of committed instruction
system.switch_cpus.commit.committedInstType_0::SimdFloatAdd            0      0.00%     76.96% # Class of committed instruction
system.switch_cpus.commit.committedInstType_0::SimdFloatAlu            0      0.00%     76.96% # Class of committed instruction
system.switch_cpus.commit.committedInstType_0::SimdFloatCmp            0      0.00%     76.96% # Class of committed instruction
system.switch_cpus.commit.committedInstType_0::SimdFloatCvt            0      0.00%     76.96% # Class of committed instruction
system.switch_cpus.commit.committedInstType_0::SimdFloatDiv            0      0.00%     76.96% # Class of committed instruction
system.switch_cpus.commit.committedInstType_0::SimdFloatMisc            0      0.00%     76.96% # Class of committed instruction
system.switch_cpus.commit.committedInstType_0::SimdFloatMult            0      0.00%     76.96% # Class of committed instruction
system.switch_cpus.commit.committedInstType_0::SimdFloatMultAcc            0      0.00%     76.96% # Class of committed instruction
system.switch_cpus.commit.committedInstType_0::SimdFloatSqrt            0      0.00%     76.96% # Class of committed instruction
system.switch_cpus.commit.committedInstType_0::SimdReduceAdd            0      0.00%     76.96% # Class of committed instruction
system.switch_cpus.commit.committedInstType_0::SimdReduceAlu            0      0.00%     76.96% # Class of committed instruction
system.switch_cpus.commit.committedInstType_0::SimdReduceCmp            0      0.00%     76.96% # Class of committed instruction
system.switch_cpus.commit.committedInstType_0::SimdFloatReduceAdd            0      0.00%     76.96% # Class of committed instruction
system.switch_cpus.commit.committedInstType_0::SimdFloatReduceCmp            0      0.00%     76.96% # Class of committed instruction
system.switch_cpus.commit.committedInstType_0::SimdAes            0      0.00%     76.96% # Class of committed instruction
system.switch_cpus.commit.committedInstType_0::SimdAesMix            0      0.00%     76.96% # Class of committed instruction
system.switch_cpus.commit.committedInstType_0::SimdSha1Hash            0      0.00%     76.96% # Class of committed instruction
system.switch_cpus.commit.committedInstType_0::SimdSha1Hash2            0      0.00%     76.96% # Class of committed instruction
system.switch_cpus.commit.committedInstType_0::SimdSha256Hash            0      0.00%     76.96% # Class of committed instruction
system.switch_cpus.commit.committedInstType_0::SimdSha256Hash2            0      0.00%     76.96% # Class of committed instruction
system.switch_cpus.commit.committedInstType_0::SimdShaSigma2            0      0.00%     76.96% # Class of committed instruction
system.switch_cpus.commit.committedInstType_0::SimdShaSigma3            0      0.00%     76.96% # Class of committed instruction
system.switch_cpus.commit.committedInstType_0::SimdPredAlu            0      0.00%     76.96% # Class of committed instruction
system.switch_cpus.commit.committedInstType_0::MemRead     63021958     15.59%     92.55% # Class of committed instruction
system.switch_cpus.commit.committedInstType_0::MemWrite     29651139      7.34%     99.89% # Class of committed instruction
system.switch_cpus.commit.committedInstType_0::FloatMemRead       229536      0.06%     99.94% # Class of committed instruction
system.switch_cpus.commit.committedInstType_0::FloatMemWrite       229536      0.06%    100.00% # Class of committed instruction
system.switch_cpus.commit.committedInstType_0::IprAccess            0      0.00%    100.00% # Class of committed instruction
system.switch_cpus.commit.committedInstType_0::InstPrefetch            0      0.00%    100.00% # Class of committed instruction
system.switch_cpus.commit.committedInstType_0::total    404136868                       # Class of committed instruction
system.switch_cpus.commit.commitEligibleSamples     24225464                       # number cycles where commit BW limit reached
system.switch_cpus.decode.idleCycles         17774934                       # Number of cycles decode is idle
system.switch_cpus.decode.blockedCycles      70977911                       # Number of cycles decode is blocked
system.switch_cpus.decode.runCycles          68516072                       # Number of cycles decode is running
system.switch_cpus.decode.unblockCycles      22078069                       # Number of cycles decode is unblocking
system.switch_cpus.decode.squashCycles        3013315                       # Number of cycles decode is squashing
system.switch_cpus.decode.branchResolved     30464773                       # Number of times decode resolved a  branch
system.switch_cpus.decode.branchMispred        254232                       # Number of times decode detected a branch misprediction
system.switch_cpus.decode.decodedInsts      651830332                       # Number of instructions handled by decode
system.switch_cpus.decode.squashedInsts       1163112                       # Number of squashed instructions handled by decode
system.switch_cpus.dtb.rdAccesses            82193394                       # TLB accesses on read requests
system.switch_cpus.dtb.wrAccesses            36235864                       # TLB accesses on write requests
system.switch_cpus.dtb.rdMisses                 57716                       # TLB misses on read requests
system.switch_cpus.dtb.wrMisses                  1470                       # TLB misses on write requests
system.switch_cpus.dtb.walker.power_state.pwrStateResidencyTicks::UNDEFINED 16607143760139                       # Cumulative time (in ticks) in various power states
system.switch_cpus.fetch.icacheStallCycles      5120431                       # Number of cycles fetch is stalled on an Icache miss
system.switch_cpus.fetch.insts              443705440                       # Number of instructions fetch has processed
system.switch_cpus.fetch.branches            65110062                       # Number of branches that fetch encountered
system.switch_cpus.fetch.predictedBranches     41411131                       # Number of branches that fetch has predicted taken
system.switch_cpus.fetch.cycles             173977967                       # Number of cycles fetch has run and was not squashing or blocked
system.switch_cpus.fetch.squashCycles         6523632                       # Number of cycles fetch has spent squashing
system.switch_cpus.fetch.miscStallCycles           12                       # Number of cycles fetch has spent waiting on interrupts,or bad addresses, or out of MSHRs
system.switch_cpus.fetch.pendingTrapStallCycles           78                       # Number of stall cycles due to pending traps
system.switch_cpus.fetch.cacheLines          66239886                       # Number of cache lines fetched
system.switch_cpus.fetch.icacheSquashes         68172                       # Number of outstanding Icache misses that were squashed
system.switch_cpus.fetch.nisnDist::samples    182360304                       # Number of instructions fetched each cycle (Total)
system.switch_cpus.fetch.nisnDist::mean      3.924052                       # Number of instructions fetched each cycle (Total)
system.switch_cpus.fetch.nisnDist::stdev     3.357559                       # Number of instructions fetched each cycle (Total)
system.switch_cpus.fetch.nisnDist::underflows            0      0.00%      0.00% # Number of instructions fetched each cycle (Total)
system.switch_cpus.fetch.nisnDist::0         58900123     32.30%     32.30% # Number of instructions fetched each cycle (Total)
system.switch_cpus.fetch.nisnDist::1          9083544      4.98%     37.28% # Number of instructions fetched each cycle (Total)
system.switch_cpus.fetch.nisnDist::2          8908765      4.89%     42.17% # Number of instructions fetched each cycle (Total)
system.switch_cpus.fetch.nisnDist::3          8276320      4.54%     46.70% # Number of instructions fetched each cycle (Total)
system.switch_cpus.fetch.nisnDist::4          9162152      5.02%     51.73% # Number of instructions fetched each cycle (Total)
system.switch_cpus.fetch.nisnDist::5         16615782      9.11%     60.84% # Number of instructions fetched each cycle (Total)
system.switch_cpus.fetch.nisnDist::6          9882073      5.42%     66.26% # Number of instructions fetched each cycle (Total)
system.switch_cpus.fetch.nisnDist::7          7411006      4.06%     70.32% # Number of instructions fetched each cycle (Total)
system.switch_cpus.fetch.nisnDist::8         54120539     29.68%    100.00% # Number of instructions fetched each cycle (Total)
system.switch_cpus.fetch.nisnDist::overflows            0      0.00%    100.00% # Number of instructions fetched each cycle (Total)
system.switch_cpus.fetch.nisnDist::min_value            0                       # Number of instructions fetched each cycle (Total)
system.switch_cpus.fetch.nisnDist::max_value            8                       # Number of instructions fetched each cycle (Total)
system.switch_cpus.fetch.nisnDist::total    182360304                       # Number of instructions fetched each cycle (Total)
system.switch_cpus.fetch.branchRate          0.356834                       # Number of branch fetches per cycle
system.switch_cpus.fetch.rate                2.431718                       # Number of inst fetches per cycle
system.switch_cpus.itb.rdAccesses                   0                       # TLB accesses on read requests
system.switch_cpus.itb.wrAccesses            66239898                       # TLB accesses on write requests
system.switch_cpus.itb.rdMisses                     0                       # TLB misses on read requests
system.switch_cpus.itb.wrMisses                    39                       # TLB misses on write requests
system.switch_cpus.itb.walker.power_state.pwrStateResidencyTicks::UNDEFINED 16607143760139                       # Cumulative time (in ticks) in various power states
system.switch_cpus.lsq0.forwLoads            13300308                       # Number of loads that had data forwarded from stores
system.switch_cpus.lsq0.squashedLoads        31295905                       # Number of loads squashed
system.switch_cpus.lsq0.ignoredResponses        50574                       # Number of memory responses ignored because the instruction is squashed
system.switch_cpus.lsq0.memOrderViolation       109084                       # Number of memory ordering violations
system.switch_cpus.lsq0.squashedStores       13521262                       # Number of stores squashed
system.switch_cpus.lsq0.rescheduledLoads         4014                       # Number of loads that were rescheduled
system.switch_cpus.lsq0.blockedByCache              0                       # Number of times an access to memory failed due to the cache being blocked
system.switch_cpus.power_state.pwrStateResidencyTicks::OFF  60761126718                       # Cumulative time (in ticks) in various power states
system.switch_cpus.rename.squashCycles        3013315                       # Number of cycles rename is squashing
system.switch_cpus.rename.idleCycles         26819624                       # Number of cycles rename is idle
system.switch_cpus.rename.blockCycles        39255557                       # Number of cycles rename is blocking
system.switch_cpus.rename.serializeStallCycles            0                       # count of cycles rename stalledfor serializing inst
system.switch_cpus.rename.runCycles          81124779                       # Number of cycles rename is running
system.switch_cpus.rename.unblockCycles      32147026                       # Number of cycles rename is unblocking
system.switch_cpus.rename.renamedInsts      634220570                       # Number of instructions processed by rename
system.switch_cpus.rename.ROBFullEvents        857717                       # Number of times rename has blocked due to ROB full
system.switch_cpus.rename.IQFullEvents       25413283                       # Number of times rename has blocked due to IQ full
system.switch_cpus.rename.LQFullEvents        1651413                       # Number of times rename has blocked due to LQ full
system.switch_cpus.rename.SQFullEvents         224350                       # Number of times rename has blocked due to SQ full
system.switch_cpus.rename.fullRegistersEvents           43                       # Number of times there has been no free registers
system.switch_cpus.rename.renamedOperands    817141008                       # Number of destination operands rename has renamed
system.switch_cpus.rename.lookups          1623365797                       # Number of register rename lookups that rename has made
system.switch_cpus.rename.intLookups       1037839805                       # Number of integer rename lookups
system.switch_cpus.rename.fpLookups            324264                       # Number of floating rename lookups
system.switch_cpus.rename.committedMaps     521179499                       # Number of HB maps that are committed
system.switch_cpus.rename.undoneMaps        295961359                       # Number of HB maps that are undone due to squashing
system.switch_cpus.rename.serializing               0                       # count of serializing insts renamed
system.switch_cpus.rename.tempSerializing            0                       # count of temporary serializing insts renamed
system.switch_cpus.rename.skidInsts          84105428                       # count of insts added to the skid buffer
system.switch_cpus.rob.reads                735034740                       # The number of ROB reads
system.switch_cpus.rob.writes              1234271077                       # The number of ROB writes
system.switch_cpus.thread0.numInsts         250000000                       # Number of Instructions committed
system.switch_cpus.thread0.numOps           404136868                       # Number of Ops committed
system.switch_cpus.thread0.numMemRefs               0                       # Number of Memory References
system.voltage_domain.voltage                       1                       # Voltage in Volts

---------- End Simulation Statistics   ----------
