
---------- Begin Simulation Statistics ----------
final_tick                               13975690950369                       # Number of ticks from beginning of simulation (restored from checkpoints and never reset)
host_inst_rate                                 201532                       # Simulator instruction rate (inst/s)
host_mem_usage                               17257260                       # Number of bytes of host memory used
host_op_rate                                   304096                       # Simulator op (including micro ops) rate (op/s)
host_seconds                                  3885.67                       # Real time elapsed on the host
host_tick_rate                                7857708                       # Simulator tick rate (ticks/s)
sim_freq                                 1000000000000                       # Frequency of simulated ticks
sim_insts                                   783086406                       # Number of instructions simulated
sim_ops                                    1181618442                       # Number of ops (including micro ops) simulated
sim_seconds                                  0.030532                       # Number of seconds simulated
sim_ticks                                 30532466637                       # Number of ticks simulated
system.cpu0.Branches                                2                       # Number of branches fetched
system.cpu0.committedInsts                         16                       # Number of instructions committed
system.cpu0.committedOps                           26                       # Number of ops (including micro ops) committed
system.cpu0.idle_fraction                           0                       # Percentage of idle cycles
system.cpu0.l2bus.snoop_filter.hit_multi_requests        10041                       # Number of requests hitting in the snoop filter with multiple (>1) holders of the requested data.
system.cpu0.l2bus.snoop_filter.hit_multi_snoops            0                       # Number of snoops hitting in the snoop filter with multiple (>1) holders of the requested data.
system.cpu0.l2bus.snoop_filter.hit_single_requests      1585723                       # Number of requests hitting in the snoop filter with a single holder of the requested data.
system.cpu0.l2bus.snoop_filter.hit_single_snoops            1                       # Number of snoops hitting in the snoop filter with a single holder of the requested data.
system.cpu0.l2bus.snoop_filter.tot_requests      3172441                       # Total number of requests made to the snoop filter.
system.cpu0.l2bus.snoop_filter.tot_snoops            1                       # Total number of snoops made to the snoop filter.
system.cpu0.mmucache.mmubus.snoop_filter.hit_multi_requests            0                       # Number of requests hitting in the snoop filter with multiple (>1) holders of the requested data.
system.cpu0.mmucache.mmubus.snoop_filter.hit_multi_snoops            0                       # Number of snoops hitting in the snoop filter with multiple (>1) holders of the requested data.
system.cpu0.mmucache.mmubus.snoop_filter.hit_single_requests            0                       # Number of requests hitting in the snoop filter with a single holder of the requested data.
system.cpu0.mmucache.mmubus.snoop_filter.hit_single_snoops            0                       # Number of snoops hitting in the snoop filter with a single holder of the requested data.
system.cpu0.mmucache.mmubus.snoop_filter.tot_requests            0                       # Total number of requests made to the snoop filter.
system.cpu0.mmucache.mmubus.snoop_filter.tot_snoops            0                       # Total number of snoops made to the snoop filter.
system.cpu0.not_idle_fraction                       1                       # Percentage of non-idle cycles
system.cpu0.numCycles                              31                       # number of cpu cycles simulated
system.cpu0.numWorkItemsCompleted                   0                       # number of work items this cpu completed
system.cpu0.numWorkItemsStarted                     0                       # number of work items this cpu started
system.cpu0.num_busy_cycles                        31                       # Number of busy cycles
system.cpu0.num_cc_register_reads                   7                       # number of times the CC registers were read
system.cpu0.num_cc_register_writes                  6                       # number of times the CC registers were written
system.cpu0.num_conditional_control_insts            1                       # number of instructions that are conditional controls
system.cpu0.num_fp_alu_accesses                     6                       # Number of float alu accesses
system.cpu0.num_fp_insts                            6                       # number of float instructions
system.cpu0.num_fp_register_reads                   6                       # number of times the floating registers were read
system.cpu0.num_fp_register_writes                  6                       # number of times the floating registers were written
system.cpu0.num_func_calls                          1                       # number of times a function call or return occured
system.cpu0.num_idle_cycles                         0                       # Number of idle cycles
system.cpu0.num_int_alu_accesses                   24                       # Number of integer alu accesses
system.cpu0.num_int_insts                          24                       # number of integer instructions
system.cpu0.num_int_register_reads                 57                       # number of times the integer registers were read
system.cpu0.num_int_register_writes                15                       # number of times the integer registers were written
system.cpu0.num_load_insts                          8                       # Number of load instructions
system.cpu0.num_mem_refs                           11                       # number of memory refs
system.cpu0.num_store_insts                         3                       # Number of store instructions
system.cpu0.num_vec_alu_accesses                    0                       # Number of vector alu accesses
system.cpu0.num_vec_insts                           0                       # number of vector instructions
system.cpu0.num_vec_register_reads                  0                       # number of times the vector registers were read
system.cpu0.num_vec_register_writes                 0                       # number of times the vector registers were written
system.cpu0.op_class::No_OpClass                    0      0.00%      0.00% # Class of executed instruction
system.cpu0.op_class::IntAlu                       13     50.00%     50.00% # Class of executed instruction
system.cpu0.op_class::IntMult                       0      0.00%     50.00% # Class of executed instruction
system.cpu0.op_class::IntDiv                        0      0.00%     50.00% # Class of executed instruction
system.cpu0.op_class::FloatAdd                      0      0.00%     50.00% # Class of executed instruction
system.cpu0.op_class::FloatCmp                      0      0.00%     50.00% # Class of executed instruction
system.cpu0.op_class::FloatCvt                      0      0.00%     50.00% # Class of executed instruction
system.cpu0.op_class::FloatMult                     0      0.00%     50.00% # Class of executed instruction
system.cpu0.op_class::FloatMultAcc                  0      0.00%     50.00% # Class of executed instruction
system.cpu0.op_class::FloatDiv                      0      0.00%     50.00% # Class of executed instruction
system.cpu0.op_class::FloatMisc                     0      0.00%     50.00% # Class of executed instruction
system.cpu0.op_class::FloatSqrt                     0      0.00%     50.00% # Class of executed instruction
system.cpu0.op_class::SimdAdd                       0      0.00%     50.00% # Class of executed instruction
system.cpu0.op_class::SimdAddAcc                    0      0.00%     50.00% # Class of executed instruction
system.cpu0.op_class::SimdAlu                       0      0.00%     50.00% # Class of executed instruction
system.cpu0.op_class::SimdCmp                       0      0.00%     50.00% # Class of executed instruction
system.cpu0.op_class::SimdCvt                       0      0.00%     50.00% # Class of executed instruction
system.cpu0.op_class::SimdMisc                      0      0.00%     50.00% # Class of executed instruction
system.cpu0.op_class::SimdMult                      0      0.00%     50.00% # Class of executed instruction
system.cpu0.op_class::SimdMultAcc                   0      0.00%     50.00% # Class of executed instruction
system.cpu0.op_class::SimdShift                     0      0.00%     50.00% # Class of executed instruction
system.cpu0.op_class::SimdShiftAcc                  0      0.00%     50.00% # Class of executed instruction
system.cpu0.op_class::SimdDiv                       0      0.00%     50.00% # Class of executed instruction
system.cpu0.op_class::SimdSqrt                      0      0.00%     50.00% # Class of executed instruction
system.cpu0.op_class::SimdFloatAdd                  0      0.00%     50.00% # Class of executed instruction
system.cpu0.op_class::SimdFloatAlu                  0      0.00%     50.00% # Class of executed instruction
system.cpu0.op_class::SimdFloatCmp                  0      0.00%     50.00% # Class of executed instruction
system.cpu0.op_class::SimdFloatCvt                  0      0.00%     50.00% # Class of executed instruction
system.cpu0.op_class::SimdFloatDiv                  0      0.00%     50.00% # Class of executed instruction
system.cpu0.op_class::SimdFloatMisc                 0      0.00%     50.00% # Class of executed instruction
system.cpu0.op_class::SimdFloatMult                 2      7.69%     57.69% # Class of executed instruction
system.cpu0.op_class::SimdFloatMultAcc              0      0.00%     57.69% # Class of executed instruction
system.cpu0.op_class::SimdFloatSqrt                 0      0.00%     57.69% # Class of executed instruction
system.cpu0.op_class::SimdReduceAdd                 0      0.00%     57.69% # Class of executed instruction
system.cpu0.op_class::SimdReduceAlu                 0      0.00%     57.69% # Class of executed instruction
system.cpu0.op_class::SimdReduceCmp                 0      0.00%     57.69% # Class of executed instruction
system.cpu0.op_class::SimdFloatReduceAdd            0      0.00%     57.69% # Class of executed instruction
system.cpu0.op_class::SimdFloatReduceCmp            0      0.00%     57.69% # Class of executed instruction
system.cpu0.op_class::SimdAes                       0      0.00%     57.69% # Class of executed instruction
system.cpu0.op_class::SimdAesMix                    0      0.00%     57.69% # Class of executed instruction
system.cpu0.op_class::SimdSha1Hash                  0      0.00%     57.69% # Class of executed instruction
system.cpu0.op_class::SimdSha1Hash2                 0      0.00%     57.69% # Class of executed instruction
system.cpu0.op_class::SimdSha256Hash                0      0.00%     57.69% # Class of executed instruction
system.cpu0.op_class::SimdSha256Hash2               0      0.00%     57.69% # Class of executed instruction
system.cpu0.op_class::SimdShaSigma2                 0      0.00%     57.69% # Class of executed instruction
system.cpu0.op_class::SimdShaSigma3                 0      0.00%     57.69% # Class of executed instruction
system.cpu0.op_class::SimdPredAlu                   0      0.00%     57.69% # Class of executed instruction
system.cpu0.op_class::MemRead                       4     15.38%     73.08% # Class of executed instruction
system.cpu0.op_class::MemWrite                      3     11.54%     84.62% # Class of executed instruction
system.cpu0.op_class::FloatMemRead                  4     15.38%    100.00% # Class of executed instruction
system.cpu0.op_class::FloatMemWrite                 0      0.00%    100.00% # Class of executed instruction
system.cpu0.op_class::IprAccess                     0      0.00%    100.00% # Class of executed instruction
system.cpu0.op_class::InstPrefetch                  0      0.00%    100.00% # Class of executed instruction
system.cpu0.op_class::total                        26                       # Class of executed instruction
system.cpu0.workload.numSyscalls                    2                       # Number of system calls
system.cpu1.Branches                                1                       # Number of branches fetched
system.cpu1.committedInsts                         16                       # Number of instructions committed
system.cpu1.committedOps                           21                       # Number of ops (including micro ops) committed
system.cpu1.idle_fraction                           0                       # Percentage of idle cycles
system.cpu1.l2bus.snoop_filter.hit_multi_requests          116                       # Number of requests hitting in the snoop filter with multiple (>1) holders of the requested data.
system.cpu1.l2bus.snoop_filter.hit_multi_snoops            0                       # Number of snoops hitting in the snoop filter with multiple (>1) holders of the requested data.
system.cpu1.l2bus.snoop_filter.hit_single_requests      1272995                       # Number of requests hitting in the snoop filter with a single holder of the requested data.
system.cpu1.l2bus.snoop_filter.hit_single_snoops          418                       # Number of snoops hitting in the snoop filter with a single holder of the requested data.
system.cpu1.l2bus.snoop_filter.tot_requests      2541774                       # Total number of requests made to the snoop filter.
system.cpu1.l2bus.snoop_filter.tot_snoops          418                       # Total number of snoops made to the snoop filter.
system.cpu1.mmucache.mmubus.snoop_filter.hit_multi_requests            0                       # Number of requests hitting in the snoop filter with multiple (>1) holders of the requested data.
system.cpu1.mmucache.mmubus.snoop_filter.hit_multi_snoops            0                       # Number of snoops hitting in the snoop filter with multiple (>1) holders of the requested data.
system.cpu1.mmucache.mmubus.snoop_filter.hit_single_requests            0                       # Number of requests hitting in the snoop filter with a single holder of the requested data.
system.cpu1.mmucache.mmubus.snoop_filter.hit_single_snoops            0                       # Number of snoops hitting in the snoop filter with a single holder of the requested data.
system.cpu1.mmucache.mmubus.snoop_filter.tot_requests            0                       # Total number of requests made to the snoop filter.
system.cpu1.mmucache.mmubus.snoop_filter.tot_snoops            0                       # Total number of snoops made to the snoop filter.
system.cpu1.not_idle_fraction                       1                       # Percentage of non-idle cycles
system.cpu1.numCycles                              30                       # number of cpu cycles simulated
system.cpu1.numWorkItemsCompleted                   0                       # number of work items this cpu completed
system.cpu1.numWorkItemsStarted                     0                       # number of work items this cpu started
system.cpu1.num_busy_cycles                        30                       # Number of busy cycles
system.cpu1.num_cc_register_reads                   6                       # number of times the CC registers were read
system.cpu1.num_cc_register_writes                  6                       # number of times the CC registers were written
system.cpu1.num_conditional_control_insts            1                       # number of instructions that are conditional controls
system.cpu1.num_fp_alu_accesses                    10                       # Number of float alu accesses
system.cpu1.num_fp_insts                           10                       # number of float instructions
system.cpu1.num_fp_register_reads                  10                       # number of times the floating registers were read
system.cpu1.num_fp_register_writes                  6                       # number of times the floating registers were written
system.cpu1.num_func_calls                          0                       # number of times a function call or return occured
system.cpu1.num_idle_cycles                         0                       # Number of idle cycles
system.cpu1.num_int_alu_accesses                   19                       # Number of integer alu accesses
system.cpu1.num_int_insts                          19                       # number of integer instructions
system.cpu1.num_int_register_reads                 42                       # number of times the integer registers were read
system.cpu1.num_int_register_writes                10                       # number of times the integer registers were written
system.cpu1.num_load_insts                          6                       # Number of load instructions
system.cpu1.num_mem_refs                           10                       # number of memory refs
system.cpu1.num_store_insts                         4                       # Number of store instructions
system.cpu1.num_vec_alu_accesses                    0                       # Number of vector alu accesses
system.cpu1.num_vec_insts                           0                       # number of vector instructions
system.cpu1.num_vec_register_reads                  0                       # number of times the vector registers were read
system.cpu1.num_vec_register_writes                 0                       # number of times the vector registers were written
system.cpu1.op_class::No_OpClass                    0      0.00%      0.00% # Class of executed instruction
system.cpu1.op_class::IntAlu                        9     42.86%     42.86% # Class of executed instruction
system.cpu1.op_class::IntMult                       0      0.00%     42.86% # Class of executed instruction
system.cpu1.op_class::IntDiv                        0      0.00%     42.86% # Class of executed instruction
system.cpu1.op_class::FloatAdd                      0      0.00%     42.86% # Class of executed instruction
system.cpu1.op_class::FloatCmp                      0      0.00%     42.86% # Class of executed instruction
system.cpu1.op_class::FloatCvt                      0      0.00%     42.86% # Class of executed instruction
system.cpu1.op_class::FloatMult                     0      0.00%     42.86% # Class of executed instruction
system.cpu1.op_class::FloatMultAcc                  0      0.00%     42.86% # Class of executed instruction
system.cpu1.op_class::FloatDiv                      0      0.00%     42.86% # Class of executed instruction
system.cpu1.op_class::FloatMisc                     0      0.00%     42.86% # Class of executed instruction
system.cpu1.op_class::FloatSqrt                     0      0.00%     42.86% # Class of executed instruction
system.cpu1.op_class::SimdAdd                       0      0.00%     42.86% # Class of executed instruction
system.cpu1.op_class::SimdAddAcc                    0      0.00%     42.86% # Class of executed instruction
system.cpu1.op_class::SimdAlu                       0      0.00%     42.86% # Class of executed instruction
system.cpu1.op_class::SimdCmp                       0      0.00%     42.86% # Class of executed instruction
system.cpu1.op_class::SimdCvt                       0      0.00%     42.86% # Class of executed instruction
system.cpu1.op_class::SimdMisc                      0      0.00%     42.86% # Class of executed instruction
system.cpu1.op_class::SimdMult                      0      0.00%     42.86% # Class of executed instruction
system.cpu1.op_class::SimdMultAcc                   0      0.00%     42.86% # Class of executed instruction
system.cpu1.op_class::SimdShift                     0      0.00%     42.86% # Class of executed instruction
system.cpu1.op_class::SimdShiftAcc                  0      0.00%     42.86% # Class of executed instruction
system.cpu1.op_class::SimdDiv                       0      0.00%     42.86% # Class of executed instruction
system.cpu1.op_class::SimdSqrt                      0      0.00%     42.86% # Class of executed instruction
system.cpu1.op_class::SimdFloatAdd                  2      9.52%     52.38% # Class of executed instruction
system.cpu1.op_class::SimdFloatAlu                  0      0.00%     52.38% # Class of executed instruction
system.cpu1.op_class::SimdFloatCmp                  0      0.00%     52.38% # Class of executed instruction
system.cpu1.op_class::SimdFloatCvt                  0      0.00%     52.38% # Class of executed instruction
system.cpu1.op_class::SimdFloatDiv                  0      0.00%     52.38% # Class of executed instruction
system.cpu1.op_class::SimdFloatMisc                 0      0.00%     52.38% # Class of executed instruction
system.cpu1.op_class::SimdFloatMult                 0      0.00%     52.38% # Class of executed instruction
system.cpu1.op_class::SimdFloatMultAcc              0      0.00%     52.38% # Class of executed instruction
system.cpu1.op_class::SimdFloatSqrt                 0      0.00%     52.38% # Class of executed instruction
system.cpu1.op_class::SimdReduceAdd                 0      0.00%     52.38% # Class of executed instruction
system.cpu1.op_class::SimdReduceAlu                 0      0.00%     52.38% # Class of executed instruction
system.cpu1.op_class::SimdReduceCmp                 0      0.00%     52.38% # Class of executed instruction
system.cpu1.op_class::SimdFloatReduceAdd            0      0.00%     52.38% # Class of executed instruction
system.cpu1.op_class::SimdFloatReduceCmp            0      0.00%     52.38% # Class of executed instruction
system.cpu1.op_class::SimdAes                       0      0.00%     52.38% # Class of executed instruction
system.cpu1.op_class::SimdAesMix                    0      0.00%     52.38% # Class of executed instruction
system.cpu1.op_class::SimdSha1Hash                  0      0.00%     52.38% # Class of executed instruction
system.cpu1.op_class::SimdSha1Hash2                 0      0.00%     52.38% # Class of executed instruction
system.cpu1.op_class::SimdSha256Hash                0      0.00%     52.38% # Class of executed instruction
system.cpu1.op_class::SimdSha256Hash2               0      0.00%     52.38% # Class of executed instruction
system.cpu1.op_class::SimdShaSigma2                 0      0.00%     52.38% # Class of executed instruction
system.cpu1.op_class::SimdShaSigma3                 0      0.00%     52.38% # Class of executed instruction
system.cpu1.op_class::SimdPredAlu                   0      0.00%     52.38% # Class of executed instruction
system.cpu1.op_class::MemRead                       2      9.52%     61.90% # Class of executed instruction
system.cpu1.op_class::MemWrite                      0      0.00%     61.90% # Class of executed instruction
system.cpu1.op_class::FloatMemRead                  4     19.05%     80.95% # Class of executed instruction
system.cpu1.op_class::FloatMemWrite                 4     19.05%    100.00% # Class of executed instruction
system.cpu1.op_class::IprAccess                     0      0.00%    100.00% # Class of executed instruction
system.cpu1.op_class::InstPrefetch                  0      0.00%    100.00% # Class of executed instruction
system.cpu1.op_class::total                        21                       # Class of executed instruction
system.cpu1.workload.numSyscalls                    0                       # Number of system calls
system.cpu2.committedInsts                         17                       # Number of instructions committed
system.cpu2.committedOps                           20                       # Number of ops (including micro ops) committed
system.cpu2.idle_fraction                           0                       # Percentage of idle cycles
system.cpu2.l2bus.snoop_filter.hit_multi_requests            0                       # Number of requests hitting in the snoop filter with multiple (>1) holders of the requested data.
system.cpu2.l2bus.snoop_filter.hit_multi_snoops            0                       # Number of snoops hitting in the snoop filter with multiple (>1) holders of the requested data.
system.cpu2.l2bus.snoop_filter.hit_single_requests      1237291                       # Number of requests hitting in the snoop filter with a single holder of the requested data.
system.cpu2.l2bus.snoop_filter.hit_single_snoops          885                       # Number of snoops hitting in the snoop filter with a single holder of the requested data.
system.cpu2.l2bus.snoop_filter.tot_requests      2458794                       # Total number of requests made to the snoop filter.
system.cpu2.l2bus.snoop_filter.tot_snoops          885                       # Total number of snoops made to the snoop filter.
system.cpu2.mmucache.mmubus.snoop_filter.hit_multi_requests            0                       # Number of requests hitting in the snoop filter with multiple (>1) holders of the requested data.
system.cpu2.mmucache.mmubus.snoop_filter.hit_multi_snoops            0                       # Number of snoops hitting in the snoop filter with multiple (>1) holders of the requested data.
system.cpu2.mmucache.mmubus.snoop_filter.hit_single_requests            0                       # Number of requests hitting in the snoop filter with a single holder of the requested data.
system.cpu2.mmucache.mmubus.snoop_filter.hit_single_snoops            0                       # Number of snoops hitting in the snoop filter with a single holder of the requested data.
system.cpu2.mmucache.mmubus.snoop_filter.tot_requests            0                       # Total number of requests made to the snoop filter.
system.cpu2.mmucache.mmubus.snoop_filter.tot_snoops            0                       # Total number of snoops made to the snoop filter.
system.cpu2.not_idle_fraction                       1                       # Percentage of non-idle cycles
system.cpu2.numCycles                              30                       # number of cpu cycles simulated
system.cpu2.numWorkItemsCompleted                   0                       # number of work items this cpu completed
system.cpu2.numWorkItemsStarted                     0                       # number of work items this cpu started
system.cpu2.num_busy_cycles                        30                       # Number of busy cycles
system.cpu2.num_cc_register_reads                   1                       # number of times the CC registers were read
system.cpu2.num_cc_register_writes                  4                       # number of times the CC registers were written
system.cpu2.num_conditional_control_insts            0                       # number of instructions that are conditional controls
system.cpu2.num_fp_alu_accesses                    10                       # Number of float alu accesses
system.cpu2.num_fp_insts                           10                       # number of float instructions
system.cpu2.num_fp_register_reads                  21                       # number of times the floating registers were read
system.cpu2.num_fp_register_writes                  9                       # number of times the floating registers were written
system.cpu2.num_func_calls                          0                       # number of times a function call or return occured
system.cpu2.num_idle_cycles                         0                       # Number of idle cycles
system.cpu2.num_int_alu_accesses                   13                       # Number of integer alu accesses
system.cpu2.num_int_insts                          13                       # number of integer instructions
system.cpu2.num_int_register_reads                 32                       # number of times the integer registers were read
system.cpu2.num_int_register_writes                10                       # number of times the integer registers were written
system.cpu2.num_load_insts                          8                       # Number of load instructions
system.cpu2.num_mem_refs                            9                       # number of memory refs
system.cpu2.num_store_insts                         1                       # Number of store instructions
system.cpu2.num_vec_alu_accesses                    0                       # Number of vector alu accesses
system.cpu2.num_vec_insts                           0                       # number of vector instructions
system.cpu2.num_vec_register_reads                  0                       # number of times the vector registers were read
system.cpu2.num_vec_register_writes                 0                       # number of times the vector registers were written
system.cpu2.op_class::No_OpClass                    0      0.00%      0.00% # Class of executed instruction
system.cpu2.op_class::IntAlu                        5     25.00%     25.00% # Class of executed instruction
system.cpu2.op_class::IntMult                       0      0.00%     25.00% # Class of executed instruction
system.cpu2.op_class::IntDiv                        0      0.00%     25.00% # Class of executed instruction
system.cpu2.op_class::FloatAdd                      0      0.00%     25.00% # Class of executed instruction
system.cpu2.op_class::FloatCmp                      0      0.00%     25.00% # Class of executed instruction
system.cpu2.op_class::FloatCvt                      0      0.00%     25.00% # Class of executed instruction
system.cpu2.op_class::FloatMult                     0      0.00%     25.00% # Class of executed instruction
system.cpu2.op_class::FloatMultAcc                  0      0.00%     25.00% # Class of executed instruction
system.cpu2.op_class::FloatDiv                      0      0.00%     25.00% # Class of executed instruction
system.cpu2.op_class::FloatMisc                     0      0.00%     25.00% # Class of executed instruction
system.cpu2.op_class::FloatSqrt                     0      0.00%     25.00% # Class of executed instruction
system.cpu2.op_class::SimdAdd                       0      0.00%     25.00% # Class of executed instruction
system.cpu2.op_class::SimdAddAcc                    0      0.00%     25.00% # Class of executed instruction
system.cpu2.op_class::SimdAlu                       0      0.00%     25.00% # Class of executed instruction
system.cpu2.op_class::SimdCmp                       0      0.00%     25.00% # Class of executed instruction
system.cpu2.op_class::SimdCvt                       0      0.00%     25.00% # Class of executed instruction
system.cpu2.op_class::SimdMisc                      0      0.00%     25.00% # Class of executed instruction
system.cpu2.op_class::SimdMult                      0      0.00%     25.00% # Class of executed instruction
system.cpu2.op_class::SimdMultAcc                   0      0.00%     25.00% # Class of executed instruction
system.cpu2.op_class::SimdShift                     0      0.00%     25.00% # Class of executed instruction
system.cpu2.op_class::SimdShiftAcc                  0      0.00%     25.00% # Class of executed instruction
system.cpu2.op_class::SimdDiv                       0      0.00%     25.00% # Class of executed instruction
system.cpu2.op_class::SimdSqrt                      0      0.00%     25.00% # Class of executed instruction
system.cpu2.op_class::SimdFloatAdd                  2     10.00%     35.00% # Class of executed instruction
system.cpu2.op_class::SimdFloatAlu                  0      0.00%     35.00% # Class of executed instruction
system.cpu2.op_class::SimdFloatCmp                  0      0.00%     35.00% # Class of executed instruction
system.cpu2.op_class::SimdFloatCvt                  0      0.00%     35.00% # Class of executed instruction
system.cpu2.op_class::SimdFloatDiv                  1      5.00%     40.00% # Class of executed instruction
system.cpu2.op_class::SimdFloatMisc                 0      0.00%     40.00% # Class of executed instruction
system.cpu2.op_class::SimdFloatMult                 3     15.00%     55.00% # Class of executed instruction
system.cpu2.op_class::SimdFloatMultAcc              0      0.00%     55.00% # Class of executed instruction
system.cpu2.op_class::SimdFloatSqrt                 0      0.00%     55.00% # Class of executed instruction
system.cpu2.op_class::SimdReduceAdd                 0      0.00%     55.00% # Class of executed instruction
system.cpu2.op_class::SimdReduceAlu                 0      0.00%     55.00% # Class of executed instruction
system.cpu2.op_class::SimdReduceCmp                 0      0.00%     55.00% # Class of executed instruction
system.cpu2.op_class::SimdFloatReduceAdd            0      0.00%     55.00% # Class of executed instruction
system.cpu2.op_class::SimdFloatReduceCmp            0      0.00%     55.00% # Class of executed instruction
system.cpu2.op_class::SimdAes                       0      0.00%     55.00% # Class of executed instruction
system.cpu2.op_class::SimdAesMix                    0      0.00%     55.00% # Class of executed instruction
system.cpu2.op_class::SimdSha1Hash                  0      0.00%     55.00% # Class of executed instruction
system.cpu2.op_class::SimdSha1Hash2                 0      0.00%     55.00% # Class of executed instruction
system.cpu2.op_class::SimdSha256Hash                0      0.00%     55.00% # Class of executed instruction
system.cpu2.op_class::SimdSha256Hash2               0      0.00%     55.00% # Class of executed instruction
system.cpu2.op_class::SimdShaSigma2                 0      0.00%     55.00% # Class of executed instruction
system.cpu2.op_class::SimdShaSigma3                 0      0.00%     55.00% # Class of executed instruction
system.cpu2.op_class::SimdPredAlu                   0      0.00%     55.00% # Class of executed instruction
system.cpu2.op_class::MemRead                       6     30.00%     85.00% # Class of executed instruction
system.cpu2.op_class::MemWrite                      0      0.00%     85.00% # Class of executed instruction
system.cpu2.op_class::FloatMemRead                  2     10.00%     95.00% # Class of executed instruction
system.cpu2.op_class::FloatMemWrite                 1      5.00%    100.00% # Class of executed instruction
system.cpu2.op_class::IprAccess                     0      0.00%    100.00% # Class of executed instruction
system.cpu2.op_class::InstPrefetch                  0      0.00%    100.00% # Class of executed instruction
system.cpu2.op_class::total                        20                       # Class of executed instruction
system.cpu2.workload.numSyscalls                    0                       # Number of system calls
system.cpu3.committedInsts                         12                       # Number of instructions committed
system.cpu3.committedOps                           22                       # Number of ops (including micro ops) committed
system.cpu3.idle_fraction                           0                       # Percentage of idle cycles
system.cpu3.l2bus.snoop_filter.hit_multi_requests            4                       # Number of requests hitting in the snoop filter with multiple (>1) holders of the requested data.
system.cpu3.l2bus.snoop_filter.hit_multi_snoops            0                       # Number of snoops hitting in the snoop filter with multiple (>1) holders of the requested data.
system.cpu3.l2bus.snoop_filter.hit_single_requests      1091928                       # Number of requests hitting in the snoop filter with a single holder of the requested data.
system.cpu3.l2bus.snoop_filter.hit_single_snoops         2825                       # Number of snoops hitting in the snoop filter with a single holder of the requested data.
system.cpu3.l2bus.snoop_filter.tot_requests      2184506                       # Total number of requests made to the snoop filter.
system.cpu3.l2bus.snoop_filter.tot_snoops         2825                       # Total number of snoops made to the snoop filter.
system.cpu3.mmucache.mmubus.snoop_filter.hit_multi_requests            0                       # Number of requests hitting in the snoop filter with multiple (>1) holders of the requested data.
system.cpu3.mmucache.mmubus.snoop_filter.hit_multi_snoops            0                       # Number of snoops hitting in the snoop filter with multiple (>1) holders of the requested data.
system.cpu3.mmucache.mmubus.snoop_filter.hit_single_requests            0                       # Number of requests hitting in the snoop filter with a single holder of the requested data.
system.cpu3.mmucache.mmubus.snoop_filter.hit_single_snoops            0                       # Number of snoops hitting in the snoop filter with a single holder of the requested data.
system.cpu3.mmucache.mmubus.snoop_filter.tot_requests            0                       # Total number of requests made to the snoop filter.
system.cpu3.mmucache.mmubus.snoop_filter.tot_snoops            0                       # Total number of snoops made to the snoop filter.
system.cpu3.not_idle_fraction                       1                       # Percentage of non-idle cycles
system.cpu3.numCycles                              30                       # number of cpu cycles simulated
system.cpu3.numWorkItemsCompleted                   0                       # number of work items this cpu completed
system.cpu3.numWorkItemsStarted                     0                       # number of work items this cpu started
system.cpu3.num_busy_cycles                        30                       # Number of busy cycles
system.cpu3.num_conditional_control_insts            0                       # number of instructions that are conditional controls
system.cpu3.num_fp_alu_accesses                    17                       # Number of float alu accesses
system.cpu3.num_fp_insts                           17                       # number of float instructions
system.cpu3.num_fp_register_reads                  36                       # number of times the floating registers were read
system.cpu3.num_fp_register_writes                 17                       # number of times the floating registers were written
system.cpu3.num_func_calls                          0                       # number of times a function call or return occured
system.cpu3.num_idle_cycles                         0                       # Number of idle cycles
system.cpu3.num_int_alu_accesses                   10                       # Number of integer alu accesses
system.cpu3.num_int_insts                          10                       # number of integer instructions
system.cpu3.num_int_register_reads                 20                       # number of times the integer registers were read
system.cpu3.num_int_register_writes                 5                       # number of times the integer registers were written
system.cpu3.num_load_insts                          5                       # Number of load instructions
system.cpu3.num_mem_refs                            5                       # number of memory refs
system.cpu3.num_store_insts                         0                       # Number of store instructions
system.cpu3.num_vec_alu_accesses                    0                       # Number of vector alu accesses
system.cpu3.num_vec_insts                           0                       # number of vector instructions
system.cpu3.num_vec_register_reads                  0                       # number of times the vector registers were read
system.cpu3.num_vec_register_writes                 0                       # number of times the vector registers were written
system.cpu3.op_class::No_OpClass                    0      0.00%      0.00% # Class of executed instruction
system.cpu3.op_class::IntAlu                        5     22.73%     22.73% # Class of executed instruction
system.cpu3.op_class::IntMult                       0      0.00%     22.73% # Class of executed instruction
system.cpu3.op_class::IntDiv                        0      0.00%     22.73% # Class of executed instruction
system.cpu3.op_class::FloatAdd                      0      0.00%     22.73% # Class of executed instruction
system.cpu3.op_class::FloatCmp                      0      0.00%     22.73% # Class of executed instruction
system.cpu3.op_class::FloatCvt                      0      0.00%     22.73% # Class of executed instruction
system.cpu3.op_class::FloatMult                     0      0.00%     22.73% # Class of executed instruction
system.cpu3.op_class::FloatMultAcc                  0      0.00%     22.73% # Class of executed instruction
system.cpu3.op_class::FloatDiv                      0      0.00%     22.73% # Class of executed instruction
system.cpu3.op_class::FloatMisc                     0      0.00%     22.73% # Class of executed instruction
system.cpu3.op_class::FloatSqrt                     0      0.00%     22.73% # Class of executed instruction
system.cpu3.op_class::SimdAdd                       0      0.00%     22.73% # Class of executed instruction
system.cpu3.op_class::SimdAddAcc                    0      0.00%     22.73% # Class of executed instruction
system.cpu3.op_class::SimdAlu                       0      0.00%     22.73% # Class of executed instruction
system.cpu3.op_class::SimdCmp                       0      0.00%     22.73% # Class of executed instruction
system.cpu3.op_class::SimdCvt                       0      0.00%     22.73% # Class of executed instruction
system.cpu3.op_class::SimdMisc                      0      0.00%     22.73% # Class of executed instruction
system.cpu3.op_class::SimdMult                      0      0.00%     22.73% # Class of executed instruction
system.cpu3.op_class::SimdMultAcc                   0      0.00%     22.73% # Class of executed instruction
system.cpu3.op_class::SimdShift                     0      0.00%     22.73% # Class of executed instruction
system.cpu3.op_class::SimdShiftAcc                  0      0.00%     22.73% # Class of executed instruction
system.cpu3.op_class::SimdDiv                       0      0.00%     22.73% # Class of executed instruction
system.cpu3.op_class::SimdSqrt                      0      0.00%     22.73% # Class of executed instruction
system.cpu3.op_class::SimdFloatAdd                  5     22.73%     45.45% # Class of executed instruction
system.cpu3.op_class::SimdFloatAlu                  0      0.00%     45.45% # Class of executed instruction
system.cpu3.op_class::SimdFloatCmp                  0      0.00%     45.45% # Class of executed instruction
system.cpu3.op_class::SimdFloatCvt                  0      0.00%     45.45% # Class of executed instruction
system.cpu3.op_class::SimdFloatDiv                  0      0.00%     45.45% # Class of executed instruction
system.cpu3.op_class::SimdFloatMisc                 0      0.00%     45.45% # Class of executed instruction
system.cpu3.op_class::SimdFloatMult                 7     31.82%     77.27% # Class of executed instruction
system.cpu3.op_class::SimdFloatMultAcc              0      0.00%     77.27% # Class of executed instruction
system.cpu3.op_class::SimdFloatSqrt                 0      0.00%     77.27% # Class of executed instruction
system.cpu3.op_class::SimdReduceAdd                 0      0.00%     77.27% # Class of executed instruction
system.cpu3.op_class::SimdReduceAlu                 0      0.00%     77.27% # Class of executed instruction
system.cpu3.op_class::SimdReduceCmp                 0      0.00%     77.27% # Class of executed instruction
system.cpu3.op_class::SimdFloatReduceAdd            0      0.00%     77.27% # Class of executed instruction
system.cpu3.op_class::SimdFloatReduceCmp            0      0.00%     77.27% # Class of executed instruction
system.cpu3.op_class::SimdAes                       0      0.00%     77.27% # Class of executed instruction
system.cpu3.op_class::SimdAesMix                    0      0.00%     77.27% # Class of executed instruction
system.cpu3.op_class::SimdSha1Hash                  0      0.00%     77.27% # Class of executed instruction
system.cpu3.op_class::SimdSha1Hash2                 0      0.00%     77.27% # Class of executed instruction
system.cpu3.op_class::SimdSha256Hash                0      0.00%     77.27% # Class of executed instruction
system.cpu3.op_class::SimdSha256Hash2               0      0.00%     77.27% # Class of executed instruction
system.cpu3.op_class::SimdShaSigma2                 0      0.00%     77.27% # Class of executed instruction
system.cpu3.op_class::SimdShaSigma3                 0      0.00%     77.27% # Class of executed instruction
system.cpu3.op_class::SimdPredAlu                   0      0.00%     77.27% # Class of executed instruction
system.cpu3.op_class::MemRead                       0      0.00%     77.27% # Class of executed instruction
system.cpu3.op_class::MemWrite                      0      0.00%     77.27% # Class of executed instruction
system.cpu3.op_class::FloatMemRead                  5     22.73%    100.00% # Class of executed instruction
system.cpu3.op_class::FloatMemWrite                 0      0.00%    100.00% # Class of executed instruction
system.cpu3.op_class::IprAccess                     0      0.00%    100.00% # Class of executed instruction
system.cpu3.op_class::InstPrefetch                  0      0.00%    100.00% # Class of executed instruction
system.cpu3.op_class::total                        22                       # Class of executed instruction
system.cpu3.workload.numSyscalls                    0                       # Number of system calls
system.l3bus.snoop_filter.hit_multi_requests            0                       # Number of requests hitting in the snoop filter with multiple (>1) holders of the requested data.
system.l3bus.snoop_filter.hit_multi_snoops            0                       # Number of snoops hitting in the snoop filter with multiple (>1) holders of the requested data.
system.l3bus.snoop_filter.hit_single_requests      1242902                       # Number of requests hitting in the snoop filter with a single holder of the requested data.
system.l3bus.snoop_filter.hit_single_snoops            0                       # Number of snoops hitting in the snoop filter with a single holder of the requested data.
system.l3bus.snoop_filter.tot_requests        2501223                       # Total number of requests made to the snoop filter.
system.l3bus.snoop_filter.tot_snoops                0                       # Total number of snoops made to the snoop filter.
system.membus.snoop_filter.hit_multi_requests            0                       # Number of requests hitting in the snoop filter with multiple (>1) holders of the requested data.
system.membus.snoop_filter.hit_multi_snoops            0                       # Number of snoops hitting in the snoop filter with multiple (>1) holders of the requested data.
system.membus.snoop_filter.hit_single_requests       732722                       # Number of requests hitting in the snoop filter with a single holder of the requested data.
system.membus.snoop_filter.hit_single_snoops            0                       # Number of snoops hitting in the snoop filter with a single holder of the requested data.
system.membus.snoop_filter.tot_requests       1544317                       # Total number of requests made to the snoop filter.
system.membus.snoop_filter.tot_snoops               0                       # Total number of snoops made to the snoop filter.
system.switch_cpus0.cc_regfile_reads        187646093                       # number of cc regfile reads
system.switch_cpus0.cc_regfile_writes        92186913                       # number of cc regfile writes
system.switch_cpus0.committedInsts          228878219                       # Number of Instructions Simulated
system.switch_cpus0.committedOps            412526228                       # Number of Ops (including micro ops) Simulated
system.switch_cpus0.cpi                      0.400602                       # CPI: Cycles Per Instruction
system.switch_cpus0.cpi_total                0.400602                       # CPI: Total CPI of All Threads
system.switch_cpus0.fp_regfile_reads        134683902                       # number of floating regfile reads
system.switch_cpus0.fp_regfile_writes        77334430                       # number of floating regfile writes
system.switch_cpus0.idleCycles                  95186                       # Total number of cycles that the CPU has spent unscheduled due to idling
system.switch_cpus0.iew.branchMispredicts       998801                       # Number of branch mispredicts detected at execute
system.switch_cpus0.iew.exec_branches        42445154                       # Number of branches executed
system.switch_cpus0.iew.exec_nop                    0                       # number of nop insts executed
system.switch_cpus0.iew.exec_rate            4.801274                       # Inst execution rate
system.switch_cpus0.iew.exec_refs           129081802                       # number of memory reference insts executed
system.switch_cpus0.iew.exec_stores          39218131                       # Number of stores executed
system.switch_cpus0.iew.exec_swp                    0                       # number of swp insts executed
system.switch_cpus0.iew.iewBlockCycles        5885182                       # Number of cycles IEW is blocking
system.switch_cpus0.iew.iewDispLoadInsts     94260317                       # Number of dispatched load instructions
system.switch_cpus0.iew.iewDispNonSpecInsts            7                       # Number of dispatched non-speculative instructions
system.switch_cpus0.iew.iewDispSquashedInsts          270                       # Number of squashed instructions skipped by dispatch
system.switch_cpus0.iew.iewDispStoreInsts     41687449                       # Number of dispatched store instructions
system.switch_cpus0.iew.iewDispatchedInsts    460865286                       # Number of instructions dispatched to IQ
system.switch_cpus0.iew.iewExecLoadInsts     89863671                       # Number of load instructions executed
system.switch_cpus0.iew.iewExecSquashedInsts      2710830                       # Number of squashed instructions skipped in execute
system.switch_cpus0.iew.iewExecutedInsts    440224269                       # Number of executed instructions
system.switch_cpus0.iew.iewIQFullEvents          9858                       # Number of times the IQ has become full, causing a stall
system.switch_cpus0.iew.iewIdleCycles               0                       # Number of cycles IEW is idle
system.switch_cpus0.iew.iewLSQFullEvents       162338                       # Number of times the LSQ has become full, causing a stall
system.switch_cpus0.iew.iewSquashCycles        907158                       # Number of cycles IEW is squashing
system.switch_cpus0.iew.iewUnblockCycles       175942                       # Number of cycles IEW is unblocking
system.switch_cpus0.iew.memOrderViolationEvents        16974                       # Number of memory order violations
system.switch_cpus0.iew.predictedNotTakenIncorrect       642308                       # Number of branches that were predicted not taken incorrectly
system.switch_cpus0.iew.predictedTakenIncorrect       356493                       # Number of branches that were predicted taken incorrectly
system.switch_cpus0.iew.wb_consumers        575693369                       # num instructions consuming a value
system.switch_cpus0.iew.wb_count            438605790                       # cumulative count of insts written-back
system.switch_cpus0.iew.wb_fanout            0.567261                       # average fanout of values written-back
system.switch_cpus0.iew.wb_producers        326568599                       # num instructions producing a value
system.switch_cpus0.iew.wb_rate              4.783622                       # insts written-back per cycle
system.switch_cpus0.iew.wb_sent             439736021                       # cumulative count of insts sent to commit
system.switch_cpus0.int_regfile_reads       609267425                       # number of integer regfile reads
system.switch_cpus0.int_regfile_writes      274590089                       # number of integer regfile writes
system.switch_cpus0.ipc                      2.496244                       # IPC: Instructions Per Cycle
system.switch_cpus0.ipc_total                2.496244                       # IPC: Total IPC of All Threads
system.switch_cpus0.iq.FU_type_0::No_OpClass      2370115      0.54%      0.54% # Type of FU issued
system.switch_cpus0.iq.FU_type_0::IntAlu    265475806     59.94%     60.47% # Type of FU issued
system.switch_cpus0.iq.FU_type_0::IntMult       909680      0.21%     60.68% # Type of FU issued
system.switch_cpus0.iq.FU_type_0::IntDiv            0      0.00%     60.68% # Type of FU issued
system.switch_cpus0.iq.FU_type_0::FloatAdd      1194405      0.27%     60.95% # Type of FU issued
system.switch_cpus0.iq.FU_type_0::FloatCmp            0      0.00%     60.95% # Type of FU issued
system.switch_cpus0.iq.FU_type_0::FloatCvt            0      0.00%     60.95% # Type of FU issued
system.switch_cpus0.iq.FU_type_0::FloatMult            0      0.00%     60.95% # Type of FU issued
system.switch_cpus0.iq.FU_type_0::FloatMultAcc            0      0.00%     60.95% # Type of FU issued
system.switch_cpus0.iq.FU_type_0::FloatDiv            0      0.00%     60.95% # Type of FU issued
system.switch_cpus0.iq.FU_type_0::FloatMisc            0      0.00%     60.95% # Type of FU issued
system.switch_cpus0.iq.FU_type_0::FloatSqrt            0      0.00%     60.95% # Type of FU issued
system.switch_cpus0.iq.FU_type_0::SimdAdd            0      0.00%     60.95% # Type of FU issued
system.switch_cpus0.iq.FU_type_0::SimdAddAcc            0      0.00%     60.95% # Type of FU issued
system.switch_cpus0.iq.FU_type_0::SimdAlu      2839971      0.64%     61.59% # Type of FU issued
system.switch_cpus0.iq.FU_type_0::SimdCmp            0      0.00%     61.59% # Type of FU issued
system.switch_cpus0.iq.FU_type_0::SimdCvt            0      0.00%     61.59% # Type of FU issued
system.switch_cpus0.iq.FU_type_0::SimdMisc       196530      0.04%     61.63% # Type of FU issued
system.switch_cpus0.iq.FU_type_0::SimdMult            0      0.00%     61.63% # Type of FU issued
system.switch_cpus0.iq.FU_type_0::SimdMultAcc            0      0.00%     61.63% # Type of FU issued
system.switch_cpus0.iq.FU_type_0::SimdShift            0      0.00%     61.63% # Type of FU issued
system.switch_cpus0.iq.FU_type_0::SimdShiftAcc            0      0.00%     61.63% # Type of FU issued
system.switch_cpus0.iq.FU_type_0::SimdDiv            0      0.00%     61.63% # Type of FU issued
system.switch_cpus0.iq.FU_type_0::SimdSqrt            0      0.00%     61.63% # Type of FU issued
system.switch_cpus0.iq.FU_type_0::SimdFloatAdd     15958558      3.60%     65.23% # Type of FU issued
system.switch_cpus0.iq.FU_type_0::SimdFloatAlu            0      0.00%     65.23% # Type of FU issued
system.switch_cpus0.iq.FU_type_0::SimdFloatCmp        54439      0.01%     65.25% # Type of FU issued
system.switch_cpus0.iq.FU_type_0::SimdFloatCvt      6975712      1.57%     66.82% # Type of FU issued
system.switch_cpus0.iq.FU_type_0::SimdFloatDiv       547299      0.12%     66.94% # Type of FU issued
system.switch_cpus0.iq.FU_type_0::SimdFloatMisc            0      0.00%     66.94% # Type of FU issued
system.switch_cpus0.iq.FU_type_0::SimdFloatMult     15864296      3.58%     70.53% # Type of FU issued
system.switch_cpus0.iq.FU_type_0::SimdFloatMultAcc            0      0.00%     70.53% # Type of FU issued
system.switch_cpus0.iq.FU_type_0::SimdFloatSqrt        39372      0.01%     70.54% # Type of FU issued
system.switch_cpus0.iq.FU_type_0::SimdReduceAdd            0      0.00%     70.54% # Type of FU issued
system.switch_cpus0.iq.FU_type_0::SimdReduceAlu            0      0.00%     70.54% # Type of FU issued
system.switch_cpus0.iq.FU_type_0::SimdReduceCmp            0      0.00%     70.54% # Type of FU issued
system.switch_cpus0.iq.FU_type_0::SimdFloatReduceAdd            0      0.00%     70.54% # Type of FU issued
system.switch_cpus0.iq.FU_type_0::SimdFloatReduceCmp            0      0.00%     70.54% # Type of FU issued
system.switch_cpus0.iq.FU_type_0::SimdAes            0      0.00%     70.54% # Type of FU issued
system.switch_cpus0.iq.FU_type_0::SimdAesMix            0      0.00%     70.54% # Type of FU issued
system.switch_cpus0.iq.FU_type_0::SimdSha1Hash            0      0.00%     70.54% # Type of FU issued
system.switch_cpus0.iq.FU_type_0::SimdSha1Hash2            0      0.00%     70.54% # Type of FU issued
system.switch_cpus0.iq.FU_type_0::SimdSha256Hash            0      0.00%     70.54% # Type of FU issued
system.switch_cpus0.iq.FU_type_0::SimdSha256Hash2            0      0.00%     70.54% # Type of FU issued
system.switch_cpus0.iq.FU_type_0::SimdShaSigma2            0      0.00%     70.54% # Type of FU issued
system.switch_cpus0.iq.FU_type_0::SimdShaSigma3            0      0.00%     70.54% # Type of FU issued
system.switch_cpus0.iq.FU_type_0::SimdPredAlu            0      0.00%     70.54% # Type of FU issued
system.switch_cpus0.iq.FU_type_0::MemRead     56343728     12.72%     83.26% # Type of FU issued
system.switch_cpus0.iq.FU_type_0::MemWrite     33478548      7.56%     90.81% # Type of FU issued
system.switch_cpus0.iq.FU_type_0::FloatMemRead     34629476      7.82%     98.63% # Type of FU issued
system.switch_cpus0.iq.FU_type_0::FloatMemWrite      6057172      1.37%    100.00% # Type of FU issued
system.switch_cpus0.iq.FU_type_0::IprAccess            0      0.00%    100.00% # Type of FU issued
system.switch_cpus0.iq.FU_type_0::InstPrefetch            0      0.00%    100.00% # Type of FU issued
system.switch_cpus0.iq.FU_type_0::total     442935107                       # Type of FU issued
system.switch_cpus0.iq.fp_alu_accesses       94923956                       # Number of floating point alu accesses
system.switch_cpus0.iq.fp_inst_queue_reads    185255230                       # Number of floating instruction queue reads
system.switch_cpus0.iq.fp_inst_queue_wakeup_accesses     89005611                       # Number of floating instruction queue wakeup accesses
system.switch_cpus0.iq.fp_inst_queue_writes     99878286                       # Number of floating instruction queue writes
system.switch_cpus0.iq.fu_busy_cnt           12674453                       # FU busy when requested
system.switch_cpus0.iq.fu_busy_rate          0.028615                       # FU busy rate (busy events/executed inst)
system.switch_cpus0.iq.fu_full::No_OpClass            0      0.00%      0.00% # attempts to use FU when none available
system.switch_cpus0.iq.fu_full::IntAlu        3697582     29.17%     29.17% # attempts to use FU when none available
system.switch_cpus0.iq.fu_full::IntMult             0      0.00%     29.17% # attempts to use FU when none available
system.switch_cpus0.iq.fu_full::IntDiv              0      0.00%     29.17% # attempts to use FU when none available
system.switch_cpus0.iq.fu_full::FloatAdd         9520      0.08%     29.25% # attempts to use FU when none available
system.switch_cpus0.iq.fu_full::FloatCmp            0      0.00%     29.25% # attempts to use FU when none available
system.switch_cpus0.iq.fu_full::FloatCvt            0      0.00%     29.25% # attempts to use FU when none available
system.switch_cpus0.iq.fu_full::FloatMult            0      0.00%     29.25% # attempts to use FU when none available
system.switch_cpus0.iq.fu_full::FloatMultAcc            0      0.00%     29.25% # attempts to use FU when none available
system.switch_cpus0.iq.fu_full::FloatDiv            0      0.00%     29.25% # attempts to use FU when none available
system.switch_cpus0.iq.fu_full::FloatMisc            0      0.00%     29.25% # attempts to use FU when none available
system.switch_cpus0.iq.fu_full::FloatSqrt            0      0.00%     29.25% # attempts to use FU when none available
system.switch_cpus0.iq.fu_full::SimdAdd             0      0.00%     29.25% # attempts to use FU when none available
system.switch_cpus0.iq.fu_full::SimdAddAcc            0      0.00%     29.25% # attempts to use FU when none available
system.switch_cpus0.iq.fu_full::SimdAlu        196173      1.55%     30.80% # attempts to use FU when none available
system.switch_cpus0.iq.fu_full::SimdCmp             0      0.00%     30.80% # attempts to use FU when none available
system.switch_cpus0.iq.fu_full::SimdCvt             0      0.00%     30.80% # attempts to use FU when none available
system.switch_cpus0.iq.fu_full::SimdMisc            6      0.00%     30.80% # attempts to use FU when none available
system.switch_cpus0.iq.fu_full::SimdMult            0      0.00%     30.80% # attempts to use FU when none available
system.switch_cpus0.iq.fu_full::SimdMultAcc            0      0.00%     30.80% # attempts to use FU when none available
system.switch_cpus0.iq.fu_full::SimdShift            0      0.00%     30.80% # attempts to use FU when none available
system.switch_cpus0.iq.fu_full::SimdShiftAcc            0      0.00%     30.80% # attempts to use FU when none available
system.switch_cpus0.iq.fu_full::SimdDiv             0      0.00%     30.80% # attempts to use FU when none available
system.switch_cpus0.iq.fu_full::SimdSqrt            0      0.00%     30.80% # attempts to use FU when none available
system.switch_cpus0.iq.fu_full::SimdFloatAdd       458316      3.62%     34.41% # attempts to use FU when none available
system.switch_cpus0.iq.fu_full::SimdFloatAlu            0      0.00%     34.41% # attempts to use FU when none available
system.switch_cpus0.iq.fu_full::SimdFloatCmp            0      0.00%     34.41% # attempts to use FU when none available
system.switch_cpus0.iq.fu_full::SimdFloatCvt        46771      0.37%     34.78% # attempts to use FU when none available
system.switch_cpus0.iq.fu_full::SimdFloatDiv            0      0.00%     34.78% # attempts to use FU when none available
system.switch_cpus0.iq.fu_full::SimdFloatMisc            0      0.00%     34.78% # attempts to use FU when none available
system.switch_cpus0.iq.fu_full::SimdFloatMult       311385      2.46%     37.24% # attempts to use FU when none available
system.switch_cpus0.iq.fu_full::SimdFloatMultAcc            0      0.00%     37.24% # attempts to use FU when none available
system.switch_cpus0.iq.fu_full::SimdFloatSqrt            0      0.00%     37.24% # attempts to use FU when none available
system.switch_cpus0.iq.fu_full::SimdReduceAdd            0      0.00%     37.24% # attempts to use FU when none available
system.switch_cpus0.iq.fu_full::SimdReduceAlu            0      0.00%     37.24% # attempts to use FU when none available
system.switch_cpus0.iq.fu_full::SimdReduceCmp            0      0.00%     37.24% # attempts to use FU when none available
system.switch_cpus0.iq.fu_full::SimdFloatReduceAdd            0      0.00%     37.24% # attempts to use FU when none available
system.switch_cpus0.iq.fu_full::SimdFloatReduceCmp            0      0.00%     37.24% # attempts to use FU when none available
system.switch_cpus0.iq.fu_full::SimdAes             0      0.00%     37.24% # attempts to use FU when none available
system.switch_cpus0.iq.fu_full::SimdAesMix            0      0.00%     37.24% # attempts to use FU when none available
system.switch_cpus0.iq.fu_full::SimdSha1Hash            0      0.00%     37.24% # attempts to use FU when none available
system.switch_cpus0.iq.fu_full::SimdSha1Hash2            0      0.00%     37.24% # attempts to use FU when none available
system.switch_cpus0.iq.fu_full::SimdSha256Hash            0      0.00%     37.24% # attempts to use FU when none available
system.switch_cpus0.iq.fu_full::SimdSha256Hash2            0      0.00%     37.24% # attempts to use FU when none available
system.switch_cpus0.iq.fu_full::SimdShaSigma2            0      0.00%     37.24% # attempts to use FU when none available
system.switch_cpus0.iq.fu_full::SimdShaSigma3            0      0.00%     37.24% # attempts to use FU when none available
system.switch_cpus0.iq.fu_full::SimdPredAlu            0      0.00%     37.24% # attempts to use FU when none available
system.switch_cpus0.iq.fu_full::MemRead       3083958     24.33%     61.57% # attempts to use FU when none available
system.switch_cpus0.iq.fu_full::MemWrite      1049166      8.28%     69.85% # attempts to use FU when none available
system.switch_cpus0.iq.fu_full::FloatMemRead      3310023     26.12%     95.96% # attempts to use FU when none available
system.switch_cpus0.iq.fu_full::FloatMemWrite       511553      4.04%    100.00% # attempts to use FU when none available
system.switch_cpus0.iq.fu_full::IprAccess            0      0.00%    100.00% # attempts to use FU when none available
system.switch_cpus0.iq.fu_full::InstPrefetch            0      0.00%    100.00% # attempts to use FU when none available
system.switch_cpus0.iq.int_alu_accesses     358315489                       # Number of integer alu accesses
system.switch_cpus0.iq.int_inst_queue_reads    805636656                       # Number of integer instruction queue reads
system.switch_cpus0.iq.int_inst_queue_wakeup_accesses    349600179                       # Number of integer instruction queue wakeup accesses
system.switch_cpus0.iq.int_inst_queue_writes    409342687                       # Number of integer instruction queue writes
system.switch_cpus0.iq.iqInstsAdded         460865275                       # Number of instructions added to the IQ (excludes non-spec)
system.switch_cpus0.iq.iqInstsIssued        442935107                       # Number of instructions issued
system.switch_cpus0.iq.iqNonSpecInstsAdded           11                       # Number of non-speculative instructions added to the IQ
system.switch_cpus0.iq.iqSquashedInstsExamined     48338951                       # Number of squashed instructions iterated over during squash; mainly for profiling
system.switch_cpus0.iq.iqSquashedInstsIssued       753355                       # Number of squashed instructions issued
system.switch_cpus0.iq.iqSquashedNonSpecRemoved            7                       # Number of squashed non-spec instructions that were removed
system.switch_cpus0.iq.iqSquashedOperandsExamined     68855077                       # Number of squashed operands that are examined and possibly removed from graph
system.switch_cpus0.iq.issued_per_cycle::samples     91593872                       # Number of insts issued each cycle
system.switch_cpus0.iq.issued_per_cycle::mean     4.835860                       # Number of insts issued each cycle
system.switch_cpus0.iq.issued_per_cycle::stdev     2.692338                       # Number of insts issued each cycle
system.switch_cpus0.iq.issued_per_cycle::underflows            0      0.00%      0.00% # Number of insts issued each cycle
system.switch_cpus0.iq.issued_per_cycle::0     12856837     14.04%     14.04% # Number of insts issued each cycle
system.switch_cpus0.iq.issued_per_cycle::1      2432076      2.66%     16.69% # Number of insts issued each cycle
system.switch_cpus0.iq.issued_per_cycle::2      4723514      5.16%     21.85% # Number of insts issued each cycle
system.switch_cpus0.iq.issued_per_cycle::3      6332948      6.91%     28.76% # Number of insts issued each cycle
system.switch_cpus0.iq.issued_per_cycle::4      8772131      9.58%     38.34% # Number of insts issued each cycle
system.switch_cpus0.iq.issued_per_cycle::5     11292894     12.33%     50.67% # Number of insts issued each cycle
system.switch_cpus0.iq.issued_per_cycle::6     13809911     15.08%     65.75% # Number of insts issued each cycle
system.switch_cpus0.iq.issued_per_cycle::7     13343789     14.57%     80.32% # Number of insts issued each cycle
system.switch_cpus0.iq.issued_per_cycle::8     18029772     19.68%    100.00% # Number of insts issued each cycle
system.switch_cpus0.iq.issued_per_cycle::overflows            0      0.00%    100.00% # Number of insts issued each cycle
system.switch_cpus0.iq.issued_per_cycle::min_value            0                       # Number of insts issued each cycle
system.switch_cpus0.iq.issued_per_cycle::max_value            8                       # Number of insts issued each cycle
system.switch_cpus0.iq.issued_per_cycle::total     91593872                       # Number of insts issued each cycle
system.switch_cpus0.iq.rate                  4.830839                       # Inst issue rate
system.switch_cpus0.iq.vec_alu_accesses             0                       # Number of vector alu accesses
system.switch_cpus0.iq.vec_inst_queue_reads            0                       # Number of vector instruction queue reads
system.switch_cpus0.iq.vec_inst_queue_wakeup_accesses            0                       # Number of vector instruction queue wakeup accesses
system.switch_cpus0.iq.vec_inst_queue_writes            0                       # Number of vector instruction queue writes
system.switch_cpus0.memDep0.conflictingLoads      5000508                       # Number of conflicting loads.
system.switch_cpus0.memDep0.conflictingStores      2298162                       # Number of conflicting stores.
system.switch_cpus0.memDep0.insertedLoads     94260317                       # Number of loads inserted to the mem dependence unit.
system.switch_cpus0.memDep0.insertedStores     41687449                       # Number of stores inserted to the mem dependence unit.
system.switch_cpus0.misc_regfile_reads      216793983                       # number of misc regfile reads
system.switch_cpus0.misc_regfile_writes             9                       # number of misc regfile writes
system.switch_cpus0.numCycles                91689058                       # number of cpu cycles simulated
system.switch_cpus0.numWorkItemsCompleted            0                       # number of work items this cpu completed
system.switch_cpus0.numWorkItemsStarted             0                       # number of work items this cpu started
system.switch_cpus0.timesIdled                    398                       # Number of times that the entire CPU went into an idle state and unscheduled itself
system.switch_cpus1.cc_regfile_reads         45137618                       # number of cc regfile reads
system.switch_cpus1.cc_regfile_writes        54345546                       # number of cc regfile writes
system.switch_cpus1.committedInsts          250000006                       # Number of Instructions Simulated
system.switch_cpus1.committedOps            297151015                       # Number of Ops (including micro ops) Simulated
system.switch_cpus1.cpi                      0.366756                       # CPI: Cycles Per Instruction
system.switch_cpus1.cpi_total                0.366756                       # CPI: Total CPI of All Threads
system.switch_cpus1.fp_regfile_reads        404199855                       # number of floating regfile reads
system.switch_cpus1.fp_regfile_writes       198342932                       # number of floating regfile writes
system.switch_cpus1.idleCycles                  20719                       # Total number of cycles that the CPU has spent unscheduled due to idling
system.switch_cpus1.iew.branchMispredicts       153368                       # Number of branch mispredicts detected at execute
system.switch_cpus1.iew.exec_branches         2765406                       # Number of branches executed
system.switch_cpus1.iew.exec_nop                    0                       # number of nop insts executed
system.switch_cpus1.iew.exec_rate            3.272503                       # Inst execution rate
system.switch_cpus1.iew.exec_refs            98352429                       # number of memory reference insts executed
system.switch_cpus1.iew.exec_stores          23617976                       # Number of stores executed
system.switch_cpus1.iew.exec_swp                    0                       # number of swp insts executed
system.switch_cpus1.iew.iewBlockCycles       15735638                       # Number of cycles IEW is blocking
system.switch_cpus1.iew.iewDispLoadInsts     75346895                       # Number of dispatched load instructions
system.switch_cpus1.iew.iewDispNonSpecInsts            0                       # Number of dispatched non-speculative instructions
system.switch_cpus1.iew.iewDispSquashedInsts        65250                       # Number of squashed instructions skipped by dispatch
system.switch_cpus1.iew.iewDispStoreInsts     23699011                       # Number of dispatched store instructions
system.switch_cpus1.iew.iewDispatchedInsts    303149023                       # Number of instructions dispatched to IQ
system.switch_cpus1.iew.iewExecLoadInsts     74734453                       # Number of load instructions executed
system.switch_cpus1.iew.iewExecSquashedInsts       245784                       # Number of squashed instructions skipped in execute
system.switch_cpus1.iew.iewExecutedInsts    300052726                       # Number of executed instructions
system.switch_cpus1.iew.iewIQFullEvents        204008                       # Number of times the IQ has become full, causing a stall
system.switch_cpus1.iew.iewIdleCycles               0                       # Number of cycles IEW is idle
system.switch_cpus1.iew.iewLSQFullEvents       458533                       # Number of times the LSQ has become full, causing a stall
system.switch_cpus1.iew.iewSquashCycles        153418                       # Number of cycles IEW is squashing
system.switch_cpus1.iew.iewUnblockCycles       725312                       # Number of cycles IEW is unblocking
system.switch_cpus1.iew.memOrderViolationEvents         4100                       # Number of memory order violations
system.switch_cpus1.iew.predictedNotTakenIncorrect        34497                       # Number of branches that were predicted not taken incorrectly
system.switch_cpus1.iew.predictedTakenIncorrect       118871                       # Number of branches that were predicted taken incorrectly
system.switch_cpus1.iew.wb_consumers        455465969                       # num instructions consuming a value
system.switch_cpus1.iew.wb_count            299932627                       # cumulative count of insts written-back
system.switch_cpus1.iew.wb_fanout            0.525701                       # average fanout of values written-back
system.switch_cpus1.iew.wb_producers        239438778                       # num instructions producing a value
system.switch_cpus1.iew.wb_rate              3.271193                       # insts written-back per cycle
system.switch_cpus1.iew.wb_sent             300003997                       # cumulative count of insts sent to commit
system.switch_cpus1.int_regfile_reads       312021168                       # number of integer regfile reads
system.switch_cpus1.int_regfile_writes       73201322                       # number of integer regfile writes
system.switch_cpus1.ipc                      2.726607                       # IPC: Instructions Per Cycle
system.switch_cpus1.ipc_total                2.726607                       # IPC: Total IPC of All Threads
system.switch_cpus1.iq.FU_type_0::No_OpClass        53226      0.02%      0.02% # Type of FU issued
system.switch_cpus1.iq.FU_type_0::IntAlu     86556172     28.82%     28.84% # Type of FU issued
system.switch_cpus1.iq.FU_type_0::IntMult        30135      0.01%     28.85% # Type of FU issued
system.switch_cpus1.iq.FU_type_0::IntDiv            0      0.00%     28.85% # Type of FU issued
system.switch_cpus1.iq.FU_type_0::FloatAdd            0      0.00%     28.85% # Type of FU issued
system.switch_cpus1.iq.FU_type_0::FloatCmp            0      0.00%     28.85% # Type of FU issued
system.switch_cpus1.iq.FU_type_0::FloatCvt            0      0.00%     28.85% # Type of FU issued
system.switch_cpus1.iq.FU_type_0::FloatMult            0      0.00%     28.85% # Type of FU issued
system.switch_cpus1.iq.FU_type_0::FloatMultAcc            0      0.00%     28.85% # Type of FU issued
system.switch_cpus1.iq.FU_type_0::FloatDiv            0      0.00%     28.85% # Type of FU issued
system.switch_cpus1.iq.FU_type_0::FloatMisc            0      0.00%     28.85% # Type of FU issued
system.switch_cpus1.iq.FU_type_0::FloatSqrt            0      0.00%     28.85% # Type of FU issued
system.switch_cpus1.iq.FU_type_0::SimdAdd            0      0.00%     28.85% # Type of FU issued
system.switch_cpus1.iq.FU_type_0::SimdAddAcc            0      0.00%     28.85% # Type of FU issued
system.switch_cpus1.iq.FU_type_0::SimdAlu       187329      0.06%     28.91% # Type of FU issued
system.switch_cpus1.iq.FU_type_0::SimdCmp            0      0.00%     28.91% # Type of FU issued
system.switch_cpus1.iq.FU_type_0::SimdCvt            0      0.00%     28.91% # Type of FU issued
system.switch_cpus1.iq.FU_type_0::SimdMisc          744      0.00%     28.91% # Type of FU issued
system.switch_cpus1.iq.FU_type_0::SimdMult            0      0.00%     28.91% # Type of FU issued
system.switch_cpus1.iq.FU_type_0::SimdMultAcc            0      0.00%     28.91% # Type of FU issued
system.switch_cpus1.iq.FU_type_0::SimdShift            0      0.00%     28.91% # Type of FU issued
system.switch_cpus1.iq.FU_type_0::SimdShiftAcc            0      0.00%     28.91% # Type of FU issued
system.switch_cpus1.iq.FU_type_0::SimdDiv            0      0.00%     28.91% # Type of FU issued
system.switch_cpus1.iq.FU_type_0::SimdSqrt            0      0.00%     28.91% # Type of FU issued
system.switch_cpus1.iq.FU_type_0::SimdFloatAdd     55718349     18.55%     47.47% # Type of FU issued
system.switch_cpus1.iq.FU_type_0::SimdFloatAlu            0      0.00%     47.47% # Type of FU issued
system.switch_cpus1.iq.FU_type_0::SimdFloatCmp            0      0.00%     47.47% # Type of FU issued
system.switch_cpus1.iq.FU_type_0::SimdFloatCvt      3366046      1.12%     48.59% # Type of FU issued
system.switch_cpus1.iq.FU_type_0::SimdFloatDiv            0      0.00%     48.59% # Type of FU issued
system.switch_cpus1.iq.FU_type_0::SimdFloatMisc            0      0.00%     48.59% # Type of FU issued
system.switch_cpus1.iq.FU_type_0::SimdFloatMult     55938934     18.63%     67.22% # Type of FU issued
system.switch_cpus1.iq.FU_type_0::SimdFloatMultAcc            0      0.00%     67.22% # Type of FU issued
system.switch_cpus1.iq.FU_type_0::SimdFloatSqrt            0      0.00%     67.22% # Type of FU issued
system.switch_cpus1.iq.FU_type_0::SimdReduceAdd            0      0.00%     67.22% # Type of FU issued
system.switch_cpus1.iq.FU_type_0::SimdReduceAlu            0      0.00%     67.22% # Type of FU issued
system.switch_cpus1.iq.FU_type_0::SimdReduceCmp            0      0.00%     67.22% # Type of FU issued
system.switch_cpus1.iq.FU_type_0::SimdFloatReduceAdd            0      0.00%     67.22% # Type of FU issued
system.switch_cpus1.iq.FU_type_0::SimdFloatReduceCmp            0      0.00%     67.22% # Type of FU issued
system.switch_cpus1.iq.FU_type_0::SimdAes            0      0.00%     67.22% # Type of FU issued
system.switch_cpus1.iq.FU_type_0::SimdAesMix            0      0.00%     67.22% # Type of FU issued
system.switch_cpus1.iq.FU_type_0::SimdSha1Hash            0      0.00%     67.22% # Type of FU issued
system.switch_cpus1.iq.FU_type_0::SimdSha1Hash2            0      0.00%     67.22% # Type of FU issued
[...]
system.switch_cpus3.commit.numCommittedDist::stdev     2.387257                       # Number of insts commited each cycle
system.switch_cpus3.commit.numCommittedDist::underflows            0      0.00%      0.00% # Number of insts commited each cycle
system.switch_cpus3.commit.numCommittedDist::0     76572268     83.59%     83.59% # Number of insts commited each cycle
system.switch_cpus3.commit.numCommittedDist::1      2079244      2.27%     85.86% # Number of insts commited each cycle
system.switch_cpus3.commit.numCommittedDist::2      1636829      1.79%     87.64% # Number of insts commited each cycle
system.switch_cpus3.commit.numCommittedDist::3      1212170      1.32%     88.97% # Number of insts commited each cycle
system.switch_cpus3.commit.numCommittedDist::4       624876      0.68%     89.65% # Number of insts commited each cycle
system.switch_cpus3.commit.numCommittedDist::5       691074      0.75%     90.40% # Number of insts commited each cycle
system.switch_cpus3.commit.numCommittedDist::6       242638      0.26%     90.67% # Number of insts commited each cycle
system.switch_cpus3.commit.numCommittedDist::7       166716      0.18%     90.85% # Number of insts commited each cycle
system.switch_cpus3.commit.numCommittedDist::8      8383813      9.15%    100.00% # Number of insts commited each cycle
system.switch_cpus3.commit.numCommittedDist::overflows            0      0.00%    100.00% # Number of insts commited each cycle
system.switch_cpus3.commit.numCommittedDist::min_value            0                       # Number of insts commited each cycle
system.switch_cpus3.commit.numCommittedDist::max_value            8                       # Number of insts commited each cycle
system.switch_cpus3.commit.numCommittedDist::total     91609628                       # Number of insts commited each cycle
system.switch_cpus3.commit.instsCommitted     60017113                       # Number of instructions committed
system.switch_cpus3.commit.opsCommitted      84637630                       # Number of ops (including micro ops) committed
system.switch_cpus3.commit.memRefs           22379666                       # Number of memory references committed
system.switch_cpus3.commit.loads             17889053                       # Number of loads committed
system.switch_cpus3.commit.amos                     0                       # Number of atomic instructions committed
system.switch_cpus3.commit.membars                  0                       # Number of memory barriers committed
system.switch_cpus3.commit.branches           3390822                       # Number of branches committed
system.switch_cpus3.commit.vector                   0                       # Number of committed Vector instructions.
system.switch_cpus3.commit.floating          54813833                       # Number of committed floating point instructions.
system.switch_cpus3.commit.integer           50863042                       # Number of committed integer instructions.
system.switch_cpus3.commit.functionCalls          131                       # Number of function calls committed.
system.switch_cpus3.commit.committedInstType_0::No_OpClass         2073      0.00%      0.00% # Class of committed instruction
system.switch_cpus3.commit.committedInstType_0::IntAlu     32237752     38.09%     38.09% # Class of committed instruction
system.switch_cpus3.commit.committedInstType_0::IntMult         3481      0.00%     38.10% # Class of committed instruction
system.switch_cpus3.commit.committedInstType_0::IntDiv            7      0.00%     38.10% # Class of committed instruction
system.switch_cpus3.commit.committedInstType_0::FloatAdd           80      0.00%     38.10% # Class of committed instruction
system.switch_cpus3.commit.committedInstType_0::FloatCmp            0      0.00%     38.10% # Class of committed instruction
system.switch_cpus3.commit.committedInstType_0::FloatCvt            0      0.00%     38.10% # Class of committed instruction
system.switch_cpus3.commit.committedInstType_0::FloatMult            0      0.00%     38.10% # Class of committed instruction
system.switch_cpus3.commit.committedInstType_0::FloatMultAcc            0      0.00%     38.10% # Class of committed instruction
system.switch_cpus3.commit.committedInstType_0::FloatDiv            0      0.00%     38.10% # Class of committed instruction
system.switch_cpus3.commit.committedInstType_0::FloatMisc            0      0.00%     38.10% # Class of committed instruction
system.switch_cpus3.commit.committedInstType_0::FloatSqrt            0      0.00%     38.10% # Class of committed instruction
system.switch_cpus3.commit.committedInstType_0::SimdAdd            0      0.00%     38.10% # Class of committed instruction
system.switch_cpus3.commit.committedInstType_0::SimdAddAcc            0      0.00%     38.10% # Class of committed instruction
system.switch_cpus3.commit.committedInstType_0::SimdAlu       375318      0.44%     38.54% # Class of committed instruction
system.switch_cpus3.commit.committedInstType_0::SimdCmp            0      0.00%     38.54% # Class of committed instruction
system.switch_cpus3.commit.committedInstType_0::SimdCvt            0      0.00%     38.54% # Class of committed instruction
system.switch_cpus3.commit.committedInstType_0::SimdMisc          455      0.00%     38.54% # Class of committed instruction
system.switch_cpus3.commit.committedInstType_0::SimdMult            0      0.00%     38.54% # Class of committed instruction
system.switch_cpus3.commit.committedInstType_0::SimdMultAcc            0      0.00%     38.54% # Class of committed instruction
system.switch_cpus3.commit.committedInstType_0::SimdShift            0      0.00%     38.54% # Class of committed instruction
system.switch_cpus3.commit.committedInstType_0::SimdShiftAcc            0      0.00%     38.54% # Class of committed instruction
system.switch_cpus3.commit.committedInstType_0::SimdDiv            0      0.00%     38.54% # Class of committed instruction
system.switch_cpus3.commit.committedInstType_0::SimdSqrt            0      0.00%     38.54% # Class of committed instruction
system.switch_cpus3.commit.committedInstType_0::SimdFloatAdd     11964297     14.14%     52.68% # Class of committed instruction
system.switch_cpus3.commit.committedInstType_0::SimdFloatAlu            0      0.00%     52.68% # Class of committed instruction
system.switch_cpus3.commit.committedInstType_0::SimdFloatCmp            0      0.00%     52.68% # Class of committed instruction
system.switch_cpus3.commit.committedInstType_0::SimdFloatCvt      1763685      2.08%     54.76% # Class of committed instruction
system.switch_cpus3.commit.committedInstType_0::SimdFloatDiv       368126      0.43%     55.19% # Class of committed instruction
system.switch_cpus3.commit.committedInstType_0::SimdFloatMisc            0      0.00%     55.19% # Class of committed instruction
system.switch_cpus3.commit.committedInstType_0::SimdFloatMult     15053990     17.79%     72.98% # Class of committed instruction
system.switch_cpus3.commit.committedInstType_0::SimdFloatMultAcc            0      0.00%     72.98% # Class of committed instruction
system.switch_cpus3.commit.committedInstType_0::SimdFloatSqrt       488700      0.58%     73.56% # Class of committed instruction
system.switch_cpus3.commit.committedInstType_0::SimdReduceAdd            0      0.00%     73.56% # Class of committed instruction
system.switch_cpus3.commit.committedInstType_0::SimdReduceAlu            0      0.00%     73.56% # Class of committed instruction
system.switch_cpus3.commit.committedInstType_0::SimdReduceCmp            0      0.00%     73.56% # Class of committed instruction
system.switch_cpus3.commit.committedInstType_0::SimdFloatReduceAdd            0      0.00%     73.56% # Class of committed instruction
system.switch_cpus3.commit.committedInstType_0::SimdFloatReduceCmp            0      0.00%     73.56% # Class of committed instruction
system.switch_cpus3.commit.committedInstType_0::SimdAes            0      0.00%     73.56% # Class of committed instruction
system.switch_cpus3.commit.committedInstType_0::SimdAesMix            0      0.00%     73.56% # Class of committed instruction
system.switch_cpus3.commit.committedInstType_0::SimdSha1Hash            0      0.00%     73.56% # Class of committed instruction
system.switch_cpus3.commit.committedInstType_0::SimdSha1Hash2            0      0.00%     73.56% # Class of committed instruction
system.switch_cpus3.commit.committedInstType_0::SimdSha256Hash            0      0.00%     73.56% # Class of committed instruction
system.switch_cpus3.commit.committedInstType_0::SimdSha256Hash2            0      0.00%     73.56% # Class of committed instruction
system.switch_cpus3.commit.committedInstType_0::SimdShaSigma2            0      0.00%     73.56% # Class of committed instruction
system.switch_cpus3.commit.committedInstType_0::SimdShaSigma3            0      0.00%     73.56% # Class of committed instruction
system.switch_cpus3.commit.committedInstType_0::SimdPredAlu            0      0.00%     73.56% # Class of committed instruction
system.switch_cpus3.commit.committedInstType_0::MemRead      1306159      1.54%     75.10% # Class of committed instruction
system.switch_cpus3.commit.committedInstType_0::MemWrite        31427      0.04%     75.14% # Class of committed instruction
system.switch_cpus3.commit.committedInstType_0::FloatMemRead     16582894     19.59%     94.73% # Class of committed instruction
system.switch_cpus3.commit.committedInstType_0::FloatMemWrite      4459186      5.27%    100.00% # Class of committed instruction
system.switch_cpus3.commit.committedInstType_0::IprAccess            0      0.00%    100.00% # Class of committed instruction
system.switch_cpus3.commit.committedInstType_0::InstPrefetch            0      0.00%    100.00% # Class of committed instruction
system.switch_cpus3.commit.committedInstType_0::total     84637630                       # Class of committed instruction
system.switch_cpus3.commit.commitEligibleSamples      8383813                       # number cycles where commit BW limit reached
system.switch_cpus3.decode.idleCycles         1082980                       # Number of cycles decode is idle
system.switch_cpus3.decode.blockedCycles     79182080                       # Number of cycles decode is blocked
system.switch_cpus3.decode.runCycles          9004022                       # Number of cycles decode is running
system.switch_cpus3.decode.unblockCycles      2356519                       # Number of cycles decode is unblocking
system.switch_cpus3.decode.squashCycles          7424                       # Number of cycles decode is squashing
system.switch_cpus3.decode.branchResolved      1632447                       # Number of times decode resolved a  branch
system.switch_cpus3.decode.branchMispred          105                       # Number of times decode detected a branch misprediction
system.switch_cpus3.decode.decodedInsts      84912152                       # Number of instructions handled by decode
system.switch_cpus3.decode.squashedInsts          501                       # Number of squashed instructions handled by decode
system.switch_cpus3.dtb.rdAccesses           17919890                       # TLB accesses on read requests
system.switch_cpus3.dtb.wrAccesses            4491536                       # TLB accesses on write requests
system.switch_cpus3.dtb.rdMisses                38629                       # TLB misses on read requests
system.switch_cpus3.dtb.wrMisses                 9112                       # TLB misses on write requests
system.switch_cpus3.dtb.walker.power_state.pwrStateResidencyTicks::UNDEFINED 13975690950369                       # Cumulative time (in ticks) in various power states
system.switch_cpus3.fetch.icacheStallCycles        44258                       # Number of cycles fetch is stalled on an Icache miss
system.switch_cpus3.fetch.insts              60359351                       # Number of instructions fetch has processed
system.switch_cpus3.fetch.branches            3414930                       # Number of branches that fetch encountered
system.switch_cpus3.fetch.predictedBranches      1640920                       # Number of branches that fetch has predicted taken
system.switch_cpus3.fetch.cycles             91581271                       # Number of cycles fetch has run and was not squashing or blocked
system.switch_cpus3.fetch.squashCycles          15054                       # Number of cycles fetch has spent squashing
system.switch_cpus3.fetch.cacheLines          5264921                       # Number of cache lines fetched
system.switch_cpus3.fetch.icacheSquashes          196                       # Number of outstanding Icache misses that were squashed
system.switch_cpus3.fetch.nisnDist::samples     91633056                       # Number of instructions fetched each cycle (Total)
system.switch_cpus3.fetch.nisnDist::mean     0.928715                       # Number of instructions fetched each cycle (Total)
system.switch_cpus3.fetch.nisnDist::stdev     2.408660                       # Number of instructions fetched each cycle (Total)
system.switch_cpus3.fetch.nisnDist::underflows            0      0.00%      0.00% # Number of instructions fetched each cycle (Total)
system.switch_cpus3.fetch.nisnDist::0        77817881     84.92%     84.92% # Number of instructions fetched each cycle (Total)
system.switch_cpus3.fetch.nisnDist::1         1275683      1.39%     86.32% # Number of instructions fetched each cycle (Total)
system.switch_cpus3.fetch.nisnDist::2          606624      0.66%     86.98% # Number of instructions fetched each cycle (Total)
system.switch_cpus3.fetch.nisnDist::3         1053136      1.15%     88.13% # Number of instructions fetched each cycle (Total)
system.switch_cpus3.fetch.nisnDist::4          898386      0.98%     89.11% # Number of instructions fetched each cycle (Total)
system.switch_cpus3.fetch.nisnDist::5          526620      0.57%     89.68% # Number of instructions fetched each cycle (Total)
system.switch_cpus3.fetch.nisnDist::6          505767      0.55%     90.23% # Number of instructions fetched each cycle (Total)
system.switch_cpus3.fetch.nisnDist::7         1400281      1.53%     91.76% # Number of instructions fetched each cycle (Total)
system.switch_cpus3.fetch.nisnDist::8         7548678      8.24%    100.00% # Number of instructions fetched each cycle (Total)
system.switch_cpus3.fetch.nisnDist::overflows            0      0.00%    100.00% # Number of instructions fetched each cycle (Total)
system.switch_cpus3.fetch.nisnDist::min_value            0                       # Number of instructions fetched each cycle (Total)
system.switch_cpus3.fetch.nisnDist::max_value            8                       # Number of instructions fetched each cycle (Total)
system.switch_cpus3.fetch.nisnDist::total     91633056                       # Number of instructions fetched each cycle (Total)
system.switch_cpus3.fetch.branchRate         0.037245                       # Number of branch fetches per cycle
system.switch_cpus3.fetch.rate               0.658305                       # Number of inst fetches per cycle
system.switch_cpus3.itb.rdAccesses                  0                       # TLB accesses on read requests
system.switch_cpus3.itb.wrAccesses            5264921                       # TLB accesses on write requests
system.switch_cpus3.itb.rdMisses                    0                       # TLB misses on read requests
system.switch_cpus3.itb.wrMisses                   22                       # TLB misses on write requests
system.switch_cpus3.itb.walker.power_state.pwrStateResidencyTicks::UNDEFINED 13975690950369                       # Cumulative time (in ticks) in various power states
system.switch_cpus3.lsq0.forwLoads            1358944                       # Number of loads that had data forwarded from stores
system.switch_cpus3.lsq0.squashedLoads          43691                       # Number of loads squashed
system.switch_cpus3.lsq0.ignoredResponses           19                       # Number of memory responses ignored because the instruction is squashed
system.switch_cpus3.lsq0.memOrderViolation          543                       # Number of memory ordering violations
system.switch_cpus3.lsq0.squashedStores          7101                       # Number of stores squashed
system.switch_cpus3.lsq0.rescheduledLoads            8                       # Number of loads that were rescheduled
system.switch_cpus3.lsq0.blockedByCache            28                       # Number of times an access to memory failed due to the cache being blocked
system.switch_cpus3.power_state.pwrStateResidencyTicks::OFF  30532466637                       # Cumulative time (in ticks) in various power states
system.switch_cpus3.rename.squashCycles          7424                       # Number of cycles rename is squashing
system.switch_cpus3.rename.idleCycles         2124012                       # Number of cycles rename is idle
system.switch_cpus3.rename.blockCycles       37415281                       # Number of cycles rename is blocking
system.switch_cpus3.rename.serializeStallCycles            0                       # count of cycles rename stalledfor serializing inst
system.switch_cpus3.rename.runCycles         10252904                       # Number of cycles rename is running
system.switch_cpus3.rename.unblockCycles     41833404                       # Number of cycles rename is unblocking
system.switch_cpus3.rename.renamedInsts      84860505                       # Number of instructions processed by rename
system.switch_cpus3.rename.ROBFullEvents       208997                       # Number of times rename has blocked due to ROB full
system.switch_cpus3.rename.IQFullEvents       4186788                       # Number of times rename has blocked due to IQ full
system.switch_cpus3.rename.LQFullEvents       2494246                       # Number of times rename has blocked due to LQ full
system.switch_cpus3.rename.SQFullEvents      35276130                       # Number of times rename has blocked due to SQ full
system.switch_cpus3.rename.renamedOperands    100022209                       # Number of destination operands rename has renamed
system.switch_cpus3.rename.lookups          229023334                       # Number of register rename lookups that rename has made
system.switch_cpus3.rename.intLookups        72601848                       # Number of integer rename lookups
system.switch_cpus3.rename.fpLookups         99599457                       # Number of floating rename lookups
system.switch_cpus3.rename.committedMaps     99725713                       # Number of HB maps that are committed
system.switch_cpus3.rename.undoneMaps          296337                       # Number of HB maps that are undone due to squashing
system.switch_cpus3.rename.serializing              0                       # count of serializing insts renamed
system.switch_cpus3.rename.tempSerializing            0                       # count of temporary serializing insts renamed
system.switch_cpus3.rename.skidInsts         13507979                       # count of insts added to the skid buffer
system.switch_cpus3.rob.reads               168024384                       # The number of ROB reads
system.switch_cpus3.rob.writes              169620722                       # The number of ROB writes
system.switch_cpus3.thread0.numInsts         60017113                       # Number of Instructions committed
system.switch_cpus3.thread0.numOps           84637630                       # Number of Ops committed
system.switch_cpus3.thread0.numMemRefs              0                       # Number of Memory References
system.voltage_domain.voltage                       1                       # Voltage in Volts

---------- End Simulation Statistics   ----------
