
---------- Begin Simulation Statistics ----------
final_tick                               17361258082281                       # Number of ticks from beginning of simulation (restored from checkpoints and never reset)
host_inst_rate                                 186924                       # Simulator instruction rate (inst/s)
host_mem_usage                               17112972                       # Number of bytes of host memory used
host_op_rate                                   316377                       # Simulator op (including micro ops) rate (op/s)
host_seconds                                  5331.84                       # Real time elapsed on the host
host_tick_rate                                6299778                       # Simulator tick rate (ticks/s)
sim_freq                                 1000000000000                       # Frequency of simulated ticks
sim_insts                                   996650794                       # Number of instructions simulated
sim_ops                                    1686875295                       # Number of ops (including micro ops) simulated
sim_seconds                                  0.033589                       # Number of seconds simulated
sim_ticks                                 33589432611                       # Number of ticks simulated
system.cpu0.committedInsts                         15                       # Number of instructions committed
system.cpu0.committedOps                           24                       # Number of ops (including micro ops) committed
system.cpu0.idle_fraction                           0                       # Percentage of idle cycles
system.cpu0.l2bus.snoop_filter.hit_multi_requests            3                       # Number of requests hitting in the snoop filter with multiple (>1) holders of the requested data.
system.cpu0.l2bus.snoop_filter.hit_multi_snoops            0                       # Number of snoops hitting in the snoop filter with multiple (>1) holders of the requested data.
system.cpu0.l2bus.snoop_filter.hit_single_requests      2516173                       # Number of requests hitting in the snoop filter with a single holder of the requested data.
system.cpu0.l2bus.snoop_filter.hit_single_snoops          155                       # Number of snoops hitting in the snoop filter with a single holder of the requested data.
system.cpu0.l2bus.snoop_filter.tot_requests      5032642                       # Total number of requests made to the snoop filter.
system.cpu0.l2bus.snoop_filter.tot_snoops          155                       # Total number of snoops made to the snoop filter.
system.cpu0.mmucache.mmubus.snoop_filter.hit_multi_requests            0                       # Number of requests hitting in the snoop filter with multiple (>1) holders of the requested data.
system.cpu0.mmucache.mmubus.snoop_filter.hit_multi_snoops            0                       # Number of snoops hitting in the snoop filter with multiple (>1) holders of the requested data.
system.cpu0.mmucache.mmubus.snoop_filter.hit_single_requests            0                       # Number of requests hitting in the snoop filter with a single holder of the requested data.
system.cpu0.mmucache.mmubus.snoop_filter.hit_single_snoops            0                       # Number of snoops hitting in the snoop filter with a single holder of the requested data.
system.cpu0.mmucache.mmubus.snoop_filter.tot_requests            0                       # Total number of requests made to the snoop filter.
system.cpu0.mmucache.mmubus.snoop_filter.tot_snoops            0                       # Total number of snoops made to the snoop filter.
system.cpu0.not_idle_fraction                       1                       # Percentage of non-idle cycles
system.cpu0.numCycles                              31                       # number of cpu cycles simulated
system.cpu0.numWorkItemsCompleted                   0                       # number of work items this cpu completed
system.cpu0.numWorkItemsStarted                     0                       # number of work items this cpu started
system.cpu0.num_busy_cycles                        31                       # Number of busy cycles
system.cpu0.num_cc_register_writes                  2                       # number of times the CC registers were written
system.cpu0.num_conditional_control_insts            0                       # number of instructions that are conditional controls
system.cpu0.num_fp_alu_accesses                    14                       # Number of float alu accesses
system.cpu0.num_fp_insts                           14                       # number of float instructions
system.cpu0.num_fp_register_reads                  30                       # number of times the floating registers were read
system.cpu0.num_fp_register_writes                 14                       # number of times the floating registers were written
system.cpu0.num_func_calls                          0                       # number of times a function call or return occured
system.cpu0.num_idle_cycles                         0                       # Number of idle cycles
system.cpu0.num_int_alu_accesses                   14                       # Number of integer alu accesses
system.cpu0.num_int_insts                          14                       # number of integer instructions
system.cpu0.num_int_register_reads                 26                       # number of times the integer registers were read
system.cpu0.num_int_register_writes                10                       # number of times the integer registers were written
system.cpu0.num_load_insts                          4                       # Number of load instructions
system.cpu0.num_mem_refs                            4                       # number of memory refs
system.cpu0.num_store_insts                         0                       # Number of store instructions
system.cpu0.num_vec_alu_accesses                    0                       # Number of vector alu accesses
system.cpu0.num_vec_insts                           0                       # number of vector instructions
system.cpu0.num_vec_register_reads                  0                       # number of times the vector registers were read
system.cpu0.num_vec_register_writes                 0                       # number of times the vector registers were written
system.cpu0.op_class::No_OpClass                    0      0.00%      0.00% # Class of executed instruction
system.cpu0.op_class::IntAlu                        6     25.00%     25.00% # Class of executed instruction
system.cpu0.op_class::IntMult                       0      0.00%     25.00% # Class of executed instruction
system.cpu0.op_class::IntDiv                        0      0.00%     25.00% # Class of executed instruction
system.cpu0.op_class::FloatAdd                      0      0.00%     25.00% # Class of executed instruction
system.cpu0.op_class::FloatCmp                      0      0.00%     25.00% # Class of executed instruction
system.cpu0.op_class::FloatCvt                      0      0.00%     25.00% # Class of executed instruction
system.cpu0.op_class::FloatMult                     0      0.00%     25.00% # Class of executed instruction
system.cpu0.op_class::FloatMultAcc                  0      0.00%     25.00% # Class of executed instruction
system.cpu0.op_class::FloatDiv                      0      0.00%     25.00% # Class of executed instruction
system.cpu0.op_class::FloatMisc                     0      0.00%     25.00% # Class of executed instruction
system.cpu0.op_class::FloatSqrt                     0      0.00%     25.00% # Class of executed instruction
system.cpu0.op_class::SimdAdd                       0      0.00%     25.00% # Class of executed instruction
system.cpu0.op_class::SimdAddAcc                    0      0.00%     25.00% # Class of executed instruction
system.cpu0.op_class::SimdAlu                       0      0.00%     25.00% # Class of executed instruction
system.cpu0.op_class::SimdCmp                       0      0.00%     25.00% # Class of executed instruction
system.cpu0.op_class::SimdCvt                       0      0.00%     25.00% # Class of executed instruction
system.cpu0.op_class::SimdMisc                      4     16.67%     41.67% # Class of executed instruction
system.cpu0.op_class::SimdMult                      0      0.00%     41.67% # Class of executed instruction
system.cpu0.op_class::SimdMultAcc                   0      0.00%     41.67% # Class of executed instruction
system.cpu0.op_class::SimdShift                     0      0.00%     41.67% # Class of executed instruction
system.cpu0.op_class::SimdShiftAcc                  0      0.00%     41.67% # Class of executed instruction
system.cpu0.op_class::SimdDiv                       0      0.00%     41.67% # Class of executed instruction
system.cpu0.op_class::SimdSqrt                      0      0.00%     41.67% # Class of executed instruction
system.cpu0.op_class::SimdFloatAdd                  3     12.50%     54.17% # Class of executed instruction
system.cpu0.op_class::SimdFloatAlu                  0      0.00%     54.17% # Class of executed instruction
system.cpu0.op_class::SimdFloatCmp                  0      0.00%     54.17% # Class of executed instruction
system.cpu0.op_class::SimdFloatCvt                  4     16.67%     70.83% # Class of executed instruction
system.cpu0.op_class::SimdFloatDiv                  0      0.00%     70.83% # Class of executed instruction
system.cpu0.op_class::SimdFloatMisc                 0      0.00%     70.83% # Class of executed instruction
system.cpu0.op_class::SimdFloatMult                 3     12.50%     83.33% # Class of executed instruction
system.cpu0.op_class::SimdFloatMultAcc              0      0.00%     83.33% # Class of executed instruction
system.cpu0.op_class::SimdFloatSqrt                 0      0.00%     83.33% # Class of executed instruction
system.cpu0.op_class::SimdReduceAdd                 0      0.00%     83.33% # Class of executed instruction
system.cpu0.op_class::SimdReduceAlu                 0      0.00%     83.33% # Class of executed instruction
system.cpu0.op_class::SimdReduceCmp                 0      0.00%     83.33% # Class of executed instruction
system.cpu0.op_class::SimdFloatReduceAdd            0      0.00%     83.33% # Class of executed instruction
system.cpu0.op_class::SimdFloatReduceCmp            0      0.00%     83.33% # Class of executed instruction
system.cpu0.op_class::SimdAes                       0      0.00%     83.33% # Class of executed instruction
system.cpu0.op_class::SimdAesMix                    0      0.00%     83.33% # Class of executed instruction
system.cpu0.op_class::SimdSha1Hash                  0      0.00%     83.33% # Class of executed instruction
system.cpu0.op_class::SimdSha1Hash2                 0      0.00%     83.33% # Class of executed instruction
system.cpu0.op_class::SimdSha256Hash                0      0.00%     83.33% # Class of executed instruction
system.cpu0.op_class::SimdSha256Hash2               0      0.00%     83.33% # Class of executed instruction
system.cpu0.op_class::SimdShaSigma2                 0      0.00%     83.33% # Class of executed instruction
system.cpu0.op_class::SimdShaSigma3                 0      0.00%     83.33% # Class of executed instruction
system.cpu0.op_class::SimdPredAlu                   0      0.00%     83.33% # Class of executed instruction
system.cpu0.op_class::MemRead                       4     16.67%    100.00% # Class of executed instruction
system.cpu0.op_class::MemWrite                      0      0.00%    100.00% # Class of executed instruction
system.cpu0.op_class::FloatMemRead                  0      0.00%    100.00% # Class of executed instruction
system.cpu0.op_class::FloatMemWrite                 0      0.00%    100.00% # Class of executed instruction
system.cpu0.op_class::IprAccess                     0      0.00%    100.00% # Class of executed instruction
system.cpu0.op_class::InstPrefetch                  0      0.00%    100.00% # Class of executed instruction
system.cpu0.op_class::total                        24                       # Class of executed instruction
system.cpu0.workload.numSyscalls                    0                       # Number of system calls
system.cpu1.committedInsts                         15                       # Number of instructions committed
system.cpu1.committedOps                           24                       # Number of ops (including micro ops) committed
system.cpu1.idle_fraction                           0                       # Percentage of idle cycles
system.cpu1.l2bus.snoop_filter.hit_multi_requests            3                       # Number of requests hitting in the snoop filter with multiple (>1) holders of the requested data.
system.cpu1.l2bus.snoop_filter.hit_multi_snoops            0                       # Number of snoops hitting in the snoop filter with multiple (>1) holders of the requested data.
system.cpu1.l2bus.snoop_filter.hit_single_requests      2511883                       # Number of requests hitting in the snoop filter with a single holder of the requested data.
system.cpu1.l2bus.snoop_filter.hit_single_snoops          155                       # Number of snoops hitting in the snoop filter with a single holder of the requested data.
system.cpu1.l2bus.snoop_filter.tot_requests      5023827                       # Total number of requests made to the snoop filter.
system.cpu1.l2bus.snoop_filter.tot_snoops          155                       # Total number of snoops made to the snoop filter.
system.cpu1.mmucache.mmubus.snoop_filter.hit_multi_requests            0                       # Number of requests hitting in the snoop filter with multiple (>1) holders of the requested data.
system.cpu1.mmucache.mmubus.snoop_filter.hit_multi_snoops            0                       # Number of snoops hitting in the snoop filter with multiple (>1) holders of the requested data.
system.cpu1.mmucache.mmubus.snoop_filter.hit_single_requests            0                       # Number of requests hitting in the snoop filter with a single holder of the requested data.
system.cpu1.mmucache.mmubus.snoop_filter.hit_single_snoops            0                       # Number of snoops hitting in the snoop filter with a single holder of the requested data.
system.cpu1.mmucache.mmubus.snoop_filter.tot_requests            0                       # Total number of requests made to the snoop filter.
system.cpu1.mmucache.mmubus.snoop_filter.tot_snoops            0                       # Total number of snoops made to the snoop filter.
system.cpu1.not_idle_fraction                       1                       # Percentage of non-idle cycles
system.cpu1.numCycles                              31                       # number of cpu cycles simulated
system.cpu1.numWorkItemsCompleted                   0                       # number of work items this cpu completed
system.cpu1.numWorkItemsStarted                     0                       # number of work items this cpu started
system.cpu1.num_busy_cycles                        31                       # Number of busy cycles
system.cpu1.num_cc_register_writes                  2                       # number of times the CC registers were written
system.cpu1.num_conditional_control_insts            0                       # number of instructions that are conditional controls
system.cpu1.num_fp_alu_accesses                    14                       # Number of float alu accesses
system.cpu1.num_fp_insts                           14                       # number of float instructions
system.cpu1.num_fp_register_reads                  30                       # number of times the floating registers were read
system.cpu1.num_fp_register_writes                 14                       # number of times the floating registers were written
system.cpu1.num_func_calls                          0                       # number of times a function call or return occured
system.cpu1.num_idle_cycles                         0                       # Number of idle cycles
system.cpu1.num_int_alu_accesses                   14                       # Number of integer alu accesses
system.cpu1.num_int_insts                          14                       # number of integer instructions
system.cpu1.num_int_register_reads                 26                       # number of times the integer registers were read
system.cpu1.num_int_register_writes                10                       # number of times the integer registers were written
system.cpu1.num_load_insts                          4                       # Number of load instructions
system.cpu1.num_mem_refs                            4                       # number of memory refs
system.cpu1.num_store_insts                         0                       # Number of store instructions
system.cpu1.num_vec_alu_accesses                    0                       # Number of vector alu accesses
system.cpu1.num_vec_insts                           0                       # number of vector instructions
system.cpu1.num_vec_register_reads                  0                       # number of times the vector registers were read
system.cpu1.num_vec_register_writes                 0                       # number of times the vector registers were written
system.cpu1.op_class::No_OpClass                    0      0.00%      0.00% # Class of executed instruction
system.cpu1.op_class::IntAlu                        6     25.00%     25.00% # Class of executed instruction
system.cpu1.op_class::IntMult                       0      0.00%     25.00% # Class of executed instruction
system.cpu1.op_class::IntDiv                        0      0.00%     25.00% # Class of executed instruction
system.cpu1.op_class::FloatAdd                      0      0.00%     25.00% # Class of executed instruction
system.cpu1.op_class::FloatCmp                      0      0.00%     25.00% # Class of executed instruction
system.cpu1.op_class::FloatCvt                      0      0.00%     25.00% # Class of executed instruction
system.cpu1.op_class::FloatMult                     0      0.00%     25.00% # Class of executed instruction
system.cpu1.op_class::FloatMultAcc                  0      0.00%     25.00% # Class of executed instruction
system.cpu1.op_class::FloatDiv                      0      0.00%     25.00% # Class of executed instruction
system.cpu1.op_class::FloatMisc                     0      0.00%     25.00% # Class of executed instruction
system.cpu1.op_class::FloatSqrt                     0      0.00%     25.00% # Class of executed instruction
system.cpu1.op_class::SimdAdd                       0      0.00%     25.00% # Class of executed instruction
system.cpu1.op_class::SimdAddAcc                    0      0.00%     25.00% # Class of executed instruction
system.cpu1.op_class::SimdAlu                       0      0.00%     25.00% # Class of executed instruction
system.cpu1.op_class::SimdCmp                       0      0.00%     25.00% # Class of executed instruction
system.cpu1.op_class::SimdCvt                       0      0.00%     25.00% # Class of executed instruction
system.cpu1.op_class::SimdMisc                      4     16.67%     41.67% # Class of executed instruction
system.cpu1.op_class::SimdMult                      0      0.00%     41.67% # Class of executed instruction
system.cpu1.op_class::SimdMultAcc                   0      0.00%     41.67% # Class of executed instruction
system.cpu1.op_class::SimdShift                     0      0.00%     41.67% # Class of executed instruction
system.cpu1.op_class::SimdShiftAcc                  0      0.00%     41.67% # Class of executed instruction
system.cpu1.op_class::SimdDiv                       0      0.00%     41.67% # Class of executed instruction
system.cpu1.op_class::SimdSqrt                      0      0.00%     41.67% # Class of executed instruction
system.cpu1.op_class::SimdFloatAdd                  3     12.50%     54.17% # Class of executed instruction
system.cpu1.op_class::SimdFloatAlu                  0      0.00%     54.17% # Class of executed instruction
system.cpu1.op_class::SimdFloatCmp                  0      0.00%     54.17% # Class of executed instruction
system.cpu1.op_class::SimdFloatCvt                  4     16.67%     70.83% # Class of executed instruction
system.cpu1.op_class::SimdFloatDiv                  0      0.00%     70.83% # Class of executed instruction
system.cpu1.op_class::SimdFloatMisc                 0      0.00%     70.83% # Class of executed instruction
system.cpu1.op_class::SimdFloatMult                 3     12.50%     83.33% # Class of executed instruction
system.cpu1.op_class::SimdFloatMultAcc              0      0.00%     83.33% # Class of executed instruction
system.cpu1.op_class::SimdFloatSqrt                 0      0.00%     83.33% # Class of executed instruction
system.cpu1.op_class::SimdReduceAdd                 0      0.00%     83.33% # Class of executed instruction
system.cpu1.op_class::SimdReduceAlu                 0      0.00%     83.33% # Class of executed instruction
system.cpu1.op_class::SimdReduceCmp                 0      0.00%     83.33% # Class of executed instruction
system.cpu1.op_class::SimdFloatReduceAdd            0      0.00%     83.33% # Class of executed instruction
system.cpu1.op_class::SimdFloatReduceCmp            0      0.00%     83.33% # Class of executed instruction
system.cpu1.op_class::SimdAes                       0      0.00%     83.33% # Class of executed instruction
system.cpu1.op_class::SimdAesMix                    0      0.00%     83.33% # Class of executed instruction
system.cpu1.op_class::SimdSha1Hash                  0      0.00%     83.33% # Class of executed instruction
system.cpu1.op_class::SimdSha1Hash2                 0      0.00%     83.33% # Class of executed instruction
system.cpu1.op_class::SimdSha256Hash                0      0.00%     83.33% # Class of executed instruction
system.cpu1.op_class::SimdSha256Hash2               0      0.00%     83.33% # Class of executed instruction
system.cpu1.op_class::SimdShaSigma2                 0      0.00%     83.33% # Class of executed instruction
system.cpu1.op_class::SimdShaSigma3                 0      0.00%     83.33% # Class of executed instruction
system.cpu1.op_class::SimdPredAlu                   0      0.00%     83.33% # Class of executed instruction
system.cpu1.op_class::MemRead                       4     16.67%    100.00% # Class of executed instruction
system.cpu1.op_class::MemWrite                      0      0.00%    100.00% # Class of executed instruction
system.cpu1.op_class::FloatMemRead                  0      0.00%    100.00% # Class of executed instruction
system.cpu1.op_class::FloatMemWrite                 0      0.00%    100.00% # Class of executed instruction
system.cpu1.op_class::IprAccess                     0      0.00%    100.00% # Class of executed instruction
system.cpu1.op_class::InstPrefetch                  0      0.00%    100.00% # Class of executed instruction
system.cpu1.op_class::total                        24                       # Class of executed instruction
system.cpu1.workload.numSyscalls                    0                       # Number of system calls
system.cpu2.committedInsts                         15                       # Number of instructions committed
system.cpu2.committedOps                           24                       # Number of ops (including micro ops) committed
system.cpu2.idle_fraction                           0                       # Percentage of idle cycles
system.cpu2.l2bus.snoop_filter.hit_multi_requests            3                       # Number of requests hitting in the snoop filter with multiple (>1) holders of the requested data.
system.cpu2.l2bus.snoop_filter.hit_multi_snoops            0                       # Number of snoops hitting in the snoop filter with multiple (>1) holders of the requested data.
system.cpu2.l2bus.snoop_filter.hit_single_requests      2530357                       # Number of requests hitting in the snoop filter with a single holder of the requested data.
system.cpu2.l2bus.snoop_filter.hit_single_snoops          105                       # Number of snoops hitting in the snoop filter with a single holder of the requested data.
system.cpu2.l2bus.snoop_filter.tot_requests      5061218                       # Total number of requests made to the snoop filter.
system.cpu2.l2bus.snoop_filter.tot_snoops          105                       # Total number of snoops made to the snoop filter.
system.cpu2.mmucache.mmubus.snoop_filter.hit_multi_requests            0                       # Number of requests hitting in the snoop filter with multiple (>1) holders of the requested data.
system.cpu2.mmucache.mmubus.snoop_filter.hit_multi_snoops            0                       # Number of snoops hitting in the snoop filter with multiple (>1) holders of the requested data.
system.cpu2.mmucache.mmubus.snoop_filter.hit_single_requests            0                       # Number of requests hitting in the snoop filter with a single holder of the requested data.
system.cpu2.mmucache.mmubus.snoop_filter.hit_single_snoops            0                       # Number of snoops hitting in the snoop filter with a single holder of the requested data.
system.cpu2.mmucache.mmubus.snoop_filter.tot_requests            0                       # Total number of requests made to the snoop filter.
system.cpu2.mmucache.mmubus.snoop_filter.tot_snoops            0                       # Total number of snoops made to the snoop filter.
system.cpu2.not_idle_fraction                       1                       # Percentage of non-idle cycles
system.cpu2.numCycles                              31                       # number of cpu cycles simulated
system.cpu2.numWorkItemsCompleted                   0                       # number of work items this cpu completed
system.cpu2.numWorkItemsStarted                     0                       # number of work items this cpu started
system.cpu2.num_busy_cycles                        31                       # Number of busy cycles
system.cpu2.num_cc_register_writes                  2                       # number of times the CC registers were written
system.cpu2.num_conditional_control_insts            0                       # number of instructions that are conditional controls
system.cpu2.num_fp_alu_accesses                    14                       # Number of float alu accesses
system.cpu2.num_fp_insts                           14                       # number of float instructions
system.cpu2.num_fp_register_reads                  30                       # number of times the floating registers were read
system.cpu2.num_fp_register_writes                 14                       # number of times the floating registers were written
system.cpu2.num_func_calls                          0                       # number of times a function call or return occured
system.cpu2.num_idle_cycles                         0                       # Number of idle cycles
system.cpu2.num_int_alu_accesses                   14                       # Number of integer alu accesses
system.cpu2.num_int_insts                          14                       # number of integer instructions
system.cpu2.num_int_register_reads                 26                       # number of times the integer registers were read
system.cpu2.num_int_register_writes                10                       # number of times the integer registers were written
system.cpu2.num_load_insts                          4                       # Number of load instructions
system.cpu2.num_mem_refs                            4                       # number of memory refs
system.cpu2.num_store_insts                         0                       # Number of store instructions
system.cpu2.num_vec_alu_accesses                    0                       # Number of vector alu accesses
system.cpu2.num_vec_insts                           0                       # number of vector instructions
system.cpu2.num_vec_register_reads                  0                       # number of times the vector registers were read
system.cpu2.num_vec_register_writes                 0                       # number of times the vector registers were written
system.cpu2.op_class::No_OpClass                    0      0.00%      0.00% # Class of executed instruction
system.cpu2.op_class::IntAlu                        6     25.00%     25.00% # Class of executed instruction
system.cpu2.op_class::IntMult                       0      0.00%     25.00% # Class of executed instruction
system.cpu2.op_class::IntDiv                        0      0.00%     25.00% # Class of executed instruction
system.cpu2.op_class::FloatAdd                      0      0.00%     25.00% # Class of executed instruction
system.cpu2.op_class::FloatCmp                      0      0.00%     25.00% # Class of executed instruction
system.cpu2.op_class::FloatCvt                      0      0.00%     25.00% # Class of executed instruction
system.cpu2.op_class::FloatMult                     0      0.00%     25.00% # Class of executed instruction
system.cpu2.op_class::FloatMultAcc                  0      0.00%     25.00% # Class of executed instruction
system.cpu2.op_class::FloatDiv                      0      0.00%     25.00% # Class of executed instruction
system.cpu2.op_class::FloatMisc                     0      0.00%     25.00% # Class of executed instruction
system.cpu2.op_class::FloatSqrt                     0      0.00%     25.00% # Class of executed instruction
system.cpu2.op_class::SimdAdd                       0      0.00%     25.00% # Class of executed instruction
system.cpu2.op_class::SimdAddAcc                    0      0.00%     25.00% # Class of executed instruction
system.cpu2.op_class::SimdAlu                       0      0.00%     25.00% # Class of executed instruction
system.cpu2.op_class::SimdCmp                       0      0.00%     25.00% # Class of executed instruction
system.cpu2.op_class::SimdCvt                       0      0.00%     25.00% # Class of executed instruction
system.cpu2.op_class::SimdMisc                      4     16.67%     41.67% # Class of executed instruction
system.cpu2.op_class::SimdMult                      0      0.00%     41.67% # Class of executed instruction
system.cpu2.op_class::SimdMultAcc                   0      0.00%     41.67% # Class of executed instruction
system.cpu2.op_class::SimdShift                     0      0.00%     41.67% # Class of executed instruction
system.cpu2.op_class::SimdShiftAcc                  0      0.00%     41.67% # Class of executed instruction
system.cpu2.op_class::SimdDiv                       0      0.00%     41.67% # Class of executed instruction
system.cpu2.op_class::SimdSqrt                      0      0.00%     41.67% # Class of executed instruction
system.cpu2.op_class::SimdFloatAdd                  3     12.50%     54.17% # Class of executed instruction
system.cpu2.op_class::SimdFloatAlu                  0      0.00%     54.17% # Class of executed instruction
system.cpu2.op_class::SimdFloatCmp                  0      0.00%     54.17% # Class of executed instruction
system.cpu2.op_class::SimdFloatCvt                  4     16.67%     70.83% # Class of executed instruction
system.cpu2.op_class::SimdFloatDiv                  0      0.00%     70.83% # Class of executed instruction
system.cpu2.op_class::SimdFloatMisc                 0      0.00%     70.83% # Class of executed instruction
system.cpu2.op_class::SimdFloatMult                 3     12.50%     83.33% # Class of executed instruction
system.cpu2.op_class::SimdFloatMultAcc              0      0.00%     83.33% # Class of executed instruction
system.cpu2.op_class::SimdFloatSqrt                 0      0.00%     83.33% # Class of executed instruction
system.cpu2.op_class::SimdReduceAdd                 0      0.00%     83.33% # Class of executed instruction
system.cpu2.op_class::SimdReduceAlu                 0      0.00%     83.33% # Class of executed instruction
system.cpu2.op_class::SimdReduceCmp                 0      0.00%     83.33% # Class of executed instruction
system.cpu2.op_class::SimdFloatReduceAdd            0      0.00%     83.33% # Class of executed instruction
system.cpu2.op_class::SimdFloatReduceCmp            0      0.00%     83.33% # Class of executed instruction
system.cpu2.op_class::SimdAes                       0      0.00%     83.33% # Class of executed instruction
system.cpu2.op_class::SimdAesMix                    0      0.00%     83.33% # Class of executed instruction
system.cpu2.op_class::SimdSha1Hash                  0      0.00%     83.33% # Class of executed instruction
system.cpu2.op_class::SimdSha1Hash2                 0      0.00%     83.33% # Class of executed instruction
system.cpu2.op_class::SimdSha256Hash                0      0.00%     83.33% # Class of executed instruction
system.cpu2.op_class::SimdSha256Hash2               0      0.00%     83.33% # Class of executed instruction
system.cpu2.op_class::SimdShaSigma2                 0      0.00%     83.33% # Class of executed instruction
system.cpu2.op_class::SimdShaSigma3                 0      0.00%     83.33% # Class of executed instruction
system.cpu2.op_class::SimdPredAlu                   0      0.00%     83.33% # Class of executed instruction
system.cpu2.op_class::MemRead                       4     16.67%    100.00% # Class of executed instruction
system.cpu2.op_class::MemWrite                      0      0.00%    100.00% # Class of executed instruction
system.cpu2.op_class::FloatMemRead                  0      0.00%    100.00% # Class of executed instruction
system.cpu2.op_class::FloatMemWrite                 0      0.00%    100.00% # Class of executed instruction
system.cpu2.op_class::IprAccess                     0      0.00%    100.00% # Class of executed instruction
system.cpu2.op_class::InstPrefetch                  0      0.00%    100.00% # Class of executed instruction
system.cpu2.op_class::total                        24                       # Class of executed instruction
system.cpu2.workload.numSyscalls                    0                       # Number of system calls
system.cpu3.committedInsts                         15                       # Number of instructions committed
system.cpu3.committedOps                           24                       # Number of ops (including micro ops) committed
system.cpu3.idle_fraction                           0                       # Percentage of idle cycles
system.cpu3.l2bus.snoop_filter.hit_multi_requests            3                       # Number of requests hitting in the snoop filter with multiple (>1) holders of the requested data.
system.cpu3.l2bus.snoop_filter.hit_multi_snoops            0                       # Number of snoops hitting in the snoop filter with multiple (>1) holders of the requested data.
system.cpu3.l2bus.snoop_filter.hit_single_requests      2529940                       # Number of requests hitting in the snoop filter with a single holder of the requested data.
system.cpu3.l2bus.snoop_filter.hit_single_snoops          105                       # Number of snoops hitting in the snoop filter with a single holder of the requested data.
system.cpu3.l2bus.snoop_filter.tot_requests      5060385                       # Total number of requests made to the snoop filter.
system.cpu3.l2bus.snoop_filter.tot_snoops          105                       # Total number of snoops made to the snoop filter.
system.cpu3.mmucache.mmubus.snoop_filter.hit_multi_requests            0                       # Number of requests hitting in the snoop filter with multiple (>1) holders of the requested data.
system.cpu3.mmucache.mmubus.snoop_filter.hit_multi_snoops            0                       # Number of snoops hitting in the snoop filter with multiple (>1) holders of the requested data.
system.cpu3.mmucache.mmubus.snoop_filter.hit_single_requests            0                       # Number of requests hitting in the snoop filter with a single holder of the requested data.
system.cpu3.mmucache.mmubus.snoop_filter.hit_single_snoops            0                       # Number of snoops hitting in the snoop filter with a single holder of the requested data.
system.cpu3.mmucache.mmubus.snoop_filter.tot_requests            0                       # Total number of requests made to the snoop filter.
system.cpu3.mmucache.mmubus.snoop_filter.tot_snoops            0                       # Total number of snoops made to the snoop filter.
system.cpu3.not_idle_fraction                       1                       # Percentage of non-idle cycles
system.cpu3.numCycles                              31                       # number of cpu cycles simulated
system.cpu3.numWorkItemsCompleted                   0                       # number of work items this cpu completed
system.cpu3.numWorkItemsStarted                     0                       # number of work items this cpu started
system.cpu3.num_busy_cycles                        31                       # Number of busy cycles
system.cpu3.num_cc_register_writes                  2                       # number of times the CC registers were written
system.cpu3.num_conditional_control_insts            0                       # number of instructions that are conditional controls
system.cpu3.num_fp_alu_accesses                    14                       # Number of float alu accesses
system.cpu3.num_fp_insts                           14                       # number of float instructions
system.cpu3.num_fp_register_reads                  30                       # number of times the floating registers were read
system.cpu3.num_fp_register_writes                 14                       # number of times the floating registers were written
system.cpu3.num_func_calls                          0                       # number of times a function call or return occured
system.cpu3.num_idle_cycles                         0                       # Number of idle cycles
system.cpu3.num_int_alu_accesses                   14                       # Number of integer alu accesses
system.cpu3.num_int_insts                          14                       # number of integer instructions
system.cpu3.num_int_register_reads                 26                       # number of times the integer registers were read
system.cpu3.num_int_register_writes                10                       # number of times the integer registers were written
system.cpu3.num_load_insts                          4                       # Number of load instructions
system.cpu3.num_mem_refs                            4                       # number of memory refs
system.cpu3.num_store_insts                         0                       # Number of store instructions
system.cpu3.num_vec_alu_accesses                    0                       # Number of vector alu accesses
system.cpu3.num_vec_insts                           0                       # number of vector instructions
system.cpu3.num_vec_register_reads                  0                       # number of times the vector registers were read
system.cpu3.num_vec_register_writes                 0                       # number of times the vector registers were written
system.cpu3.op_class::No_OpClass                    0      0.00%      0.00% # Class of executed instruction
system.cpu3.op_class::IntAlu                        6     25.00%     25.00% # Class of executed instruction
system.cpu3.op_class::IntMult                       0      0.00%     25.00% # Class of executed instruction
system.cpu3.op_class::IntDiv                        0      0.00%     25.00% # Class of executed instruction
system.cpu3.op_class::FloatAdd                      0      0.00%     25.00% # Class of executed instruction
system.cpu3.op_class::FloatCmp                      0      0.00%     25.00% # Class of executed instruction
system.cpu3.op_class::FloatCvt                      0      0.00%     25.00% # Class of executed instruction
system.cpu3.op_class::FloatMult                     0      0.00%     25.00% # Class of executed instruction
system.cpu3.op_class::FloatMultAcc                  0      0.00%     25.00% # Class of executed instruction
system.cpu3.op_class::FloatDiv                      0      0.00%     25.00% # Class of executed instruction
system.cpu3.op_class::FloatMisc                     0      0.00%     25.00% # Class of executed instruction
system.cpu3.op_class::FloatSqrt                     0      0.00%     25.00% # Class of executed instruction
system.cpu3.op_class::SimdAdd                       0      0.00%     25.00% # Class of executed instruction
system.cpu3.op_class::SimdAddAcc                    0      0.00%     25.00% # Class of executed instruction
system.cpu3.op_class::SimdAlu                       0      0.00%     25.00% # Class of executed instruction
system.cpu3.op_class::SimdCmp                       0      0.00%     25.00% # Class of executed instruction
system.cpu3.op_class::SimdCvt                       0      0.00%     25.00% # Class of executed instruction
system.cpu3.op_class::SimdMisc                      4     16.67%     41.67% # Class of executed instruction
system.cpu3.op_class::SimdMult                      0      0.00%     41.67% # Class of executed instruction
system.cpu3.op_class::SimdMultAcc                   0      0.00%     41.67% # Class of executed instruction
system.cpu3.op_class::SimdShift                     0      0.00%     41.67% # Class of executed instruction
system.cpu3.op_class::SimdShiftAcc                  0      0.00%     41.67% # Class of executed instruction
system.cpu3.op_class::SimdDiv                       0      0.00%     41.67% # Class of executed instruction
system.cpu3.op_class::SimdSqrt                      0      0.00%     41.67% # Class of executed instruction
system.cpu3.op_class::SimdFloatAdd                  3     12.50%     54.17% # Class of executed instruction
system.cpu3.op_class::SimdFloatAlu                  0      0.00%     54.17% # Class of executed instruction
system.cpu3.op_class::SimdFloatCmp                  0      0.00%     54.17% # Class of executed instruction
system.cpu3.op_class::SimdFloatCvt                  4     16.67%     70.83% # Class of executed instruction
system.cpu3.op_class::SimdFloatDiv                  0      0.00%     70.83% # Class of executed instruction
system.cpu3.op_class::SimdFloatMisc                 0      0.00%     70.83% # Class of executed instruction
system.cpu3.op_class::SimdFloatMult                 3     12.50%     83.33% # Class of executed instruction
system.cpu3.op_class::SimdFloatMultAcc              0      0.00%     83.33% # Class of executed instruction
system.cpu3.op_class::SimdFloatSqrt                 0      0.00%     83.33% # Class of executed instruction
system.cpu3.op_class::SimdReduceAdd                 0      0.00%     83.33% # Class of executed instruction
system.cpu3.op_class::SimdReduceAlu                 0      0.00%     83.33% # Class of executed instruction
system.cpu3.op_class::SimdReduceCmp                 0      0.00%     83.33% # Class of executed instruction
system.cpu3.op_class::SimdFloatReduceAdd            0      0.00%     83.33% # Class of executed instruction
system.cpu3.op_class::SimdFloatReduceCmp            0      0.00%     83.33% # Class of executed instruction
system.cpu3.op_class::SimdAes                       0      0.00%     83.33% # Class of executed instruction
system.cpu3.op_class::SimdAesMix                    0      0.00%     83.33% # Class of executed instruction
system.cpu3.op_class::SimdSha1Hash                  0      0.00%     83.33% # Class of executed instruction
system.cpu3.op_class::SimdSha1Hash2                 0      0.00%     83.33% # Class of executed instruction
system.cpu3.op_class::SimdSha256Hash                0      0.00%     83.33% # Class of executed instruction
system.cpu3.op_class::SimdSha256Hash2               0      0.00%     83.33% # Class of executed instruction
system.cpu3.op_class::SimdShaSigma2                 0      0.00%     83.33% # Class of executed instruction
system.cpu3.op_class::SimdShaSigma3                 0      0.00%     83.33% # Class of executed instruction
system.cpu3.op_class::SimdPredAlu                   0      0.00%     83.33% # Class of executed instruction
system.cpu3.op_class::MemRead                       4     16.67%    100.00% # Class of executed instruction
system.cpu3.op_class::MemWrite                      0      0.00%    100.00% # Class of executed instruction
system.cpu3.op_class::FloatMemRead                  0      0.00%    100.00% # Class of executed instruction
system.cpu3.op_class::FloatMemWrite                 0      0.00%    100.00% # Class of executed instruction
system.cpu3.op_class::IprAccess                     0      0.00%    100.00% # Class of executed instruction
system.cpu3.op_class::InstPrefetch                  0      0.00%    100.00% # Class of executed instruction
system.cpu3.op_class::total                        24                       # Class of executed instruction
system.cpu3.workload.numSyscalls                    0                       # Number of system calls
system.l3bus.snoop_filter.hit_multi_requests            0                       # Number of requests hitting in the snoop filter with multiple (>1) holders of the requested data.
system.l3bus.snoop_filter.hit_multi_snoops            0                       # Number of snoops hitting in the snoop filter with multiple (>1) holders of the requested data.
system.l3bus.snoop_filter.hit_single_requests      1889746                       # Number of requests hitting in the snoop filter with a single holder of the requested data.
system.l3bus.snoop_filter.hit_single_snoops            0                       # Number of snoops hitting in the snoop filter with a single holder of the requested data.
system.l3bus.snoop_filter.tot_requests        3788525                       # Total number of requests made to the snoop filter.
system.l3bus.snoop_filter.tot_snoops                0                       # Total number of snoops made to the snoop filter.
system.membus.snoop_filter.hit_multi_requests            0                       # Number of requests hitting in the snoop filter with multiple (>1) holders of the requested data.
system.membus.snoop_filter.hit_multi_snoops            0                       # Number of snoops hitting in the snoop filter with multiple (>1) holders of the requested data.
system.membus.snoop_filter.hit_single_requests        89715                       # Number of requests hitting in the snoop filter with a single holder of the requested data.
system.membus.snoop_filter.hit_single_snoops            0                       # Number of snoops hitting in the snoop filter with a single holder of the requested data.
system.membus.snoop_filter.tot_requests        250395                       # Total number of requests made to the snoop filter.
system.membus.snoop_filter.tot_snoops               0                       # Total number of snoops made to the snoop filter.
system.switch_cpus0.cc_regfile_reads        164559014                       # number of cc regfile reads
system.switch_cpus0.cc_regfile_writes       117036582                       # number of cc regfile writes
system.switch_cpus0.committedInsts          248568672                       # Number of Instructions Simulated
system.switch_cpus0.committedOps            420713579                       # Number of Ops (including micro ops) Simulated
system.switch_cpus0.cpi                      0.405800                       # CPI: Cycles Per Instruction
system.switch_cpus0.cpi_total                0.405800                       # CPI: Total CPI of All Threads
system.switch_cpus0.fp_regfile_reads        360100244                       # number of floating regfile reads
system.switch_cpus0.fp_regfile_writes       161880342                       # number of floating regfile writes
system.switch_cpus0.idleCycles                  27262                       # Total number of cycles that the CPU has spent unscheduled due to idling
system.switch_cpus0.iew.branchMispredicts       117343                       # Number of branch mispredicts detected at execute
system.switch_cpus0.iew.exec_branches        29171067                       # Number of branches executed
system.switch_cpus0.iew.exec_nop                    0                       # number of nop insts executed
system.switch_cpus0.iew.exec_rate            4.237793                       # Inst execution rate
system.switch_cpus0.iew.exec_refs            52273456                       # number of memory reference insts executed
system.switch_cpus0.iew.exec_stores           2292772                       # Number of stores executed
system.switch_cpus0.iew.exec_swp                    0                       # number of swp insts executed
system.switch_cpus0.iew.iewBlockCycles       10541755                       # Number of cycles IEW is blocking
system.switch_cpus0.iew.iewDispLoadInsts     50142731                       # Number of dispatched load instructions
system.switch_cpus0.iew.iewDispNonSpecInsts            0                       # Number of dispatched non-speculative instructions
system.switch_cpus0.iew.iewDispSquashedInsts         3681                       # Number of squashed instructions skipped by dispatch
system.switch_cpus0.iew.iewDispStoreInsts      2305461                       # Number of dispatched store instructions
system.switch_cpus0.iew.iewDispatchedInsts    429038634                       # Number of instructions dispatched to IQ
system.switch_cpus0.iew.iewExecLoadInsts     49980684                       # Number of load instructions executed
system.switch_cpus0.iew.iewExecSquashedInsts       138739                       # Number of squashed instructions skipped in execute
system.switch_cpus0.iew.iewExecutedInsts    427462478                       # Number of executed instructions
system.switch_cpus0.iew.iewIQFullEvents        229994                       # Number of times the IQ has become full, causing a stall
system.switch_cpus0.iew.iewIdleCycles               0                       # Number of cycles IEW is idle
system.switch_cpus0.iew.iewLSQFullEvents       143397                       # Number of times the LSQ has become full, causing a stall
system.switch_cpus0.iew.iewSquashCycles        173722                       # Number of cycles IEW is squashing
system.switch_cpus0.iew.iewUnblockCycles       488895                       # Number of cycles IEW is unblocking
system.switch_cpus0.iew.memOrderViolationEvents           78                       # Number of memory order violations
system.switch_cpus0.iew.predictedNotTakenIncorrect       114184                       # Number of branches that were predicted not taken incorrectly
system.switch_cpus0.iew.predictedTakenIncorrect         3159                       # Number of branches that were predicted taken incorrectly
system.switch_cpus0.iew.wb_consumers        634378654                       # num instructions consuming a value
system.switch_cpus0.iew.wb_count            426596409                       # cumulative count of insts written-back
system.switch_cpus0.iew.wb_fanout            0.591579                       # average fanout of values written-back
system.switch_cpus0.iew.wb_producers        375285231                       # num instructions producing a value
system.switch_cpus0.iew.wb_rate              4.229207                       # insts written-back per cycle
system.switch_cpus0.iew.wb_sent             427353307                       # cumulative count of insts sent to commit
system.switch_cpus0.int_regfile_reads       377119445                       # number of integer regfile reads
system.switch_cpus0.int_regfile_writes      223855332                       # number of integer regfile writes
system.switch_cpus0.ipc                      2.464269                       # IPC: Instructions Per Cycle
system.switch_cpus0.ipc_total                2.464269                       # IPC: Total IPC of All Threads
system.switch_cpus0.iq.FU_type_0::No_OpClass       684664      0.16%      0.16% # Type of FU issued
system.switch_cpus0.iq.FU_type_0::IntAlu    214077945     50.06%     50.22% # Type of FU issued
system.switch_cpus0.iq.FU_type_0::IntMult        35839      0.01%     50.23% # Type of FU issued
system.switch_cpus0.iq.FU_type_0::IntDiv           19      0.00%     50.23% # Type of FU issued
system.switch_cpus0.iq.FU_type_0::FloatAdd            1      0.00%     50.23% # Type of FU issued
system.switch_cpus0.iq.FU_type_0::FloatCmp            0      0.00%     50.23% # Type of FU issued
system.switch_cpus0.iq.FU_type_0::FloatCvt            0      0.00%     50.23% # Type of FU issued
system.switch_cpus0.iq.FU_type_0::FloatMult            0      0.00%     50.23% # Type of FU issued
system.switch_cpus0.iq.FU_type_0::FloatMultAcc            0      0.00%     50.23% # Type of FU issued
system.switch_cpus0.iq.FU_type_0::FloatDiv            0      0.00%     50.23% # Type of FU issued
system.switch_cpus0.iq.FU_type_0::FloatMisc            0      0.00%     50.23% # Type of FU issued
system.switch_cpus0.iq.FU_type_0::FloatSqrt            0      0.00%     50.23% # Type of FU issued
system.switch_cpus0.iq.FU_type_0::SimdAdd            0      0.00%     50.23% # Type of FU issued
system.switch_cpus0.iq.FU_type_0::SimdAddAcc            0      0.00%     50.23% # Type of FU issued
system.switch_cpus0.iq.FU_type_0::SimdAlu        28944      0.01%     50.24% # Type of FU issued
system.switch_cpus0.iq.FU_type_0::SimdCmp            0      0.00%     50.24% # Type of FU issued
system.switch_cpus0.iq.FU_type_0::SimdCvt            0      0.00%     50.24% # Type of FU issued
system.switch_cpus0.iq.FU_type_0::SimdMisc     37737415      8.83%     59.07% # Type of FU issued
system.switch_cpus0.iq.FU_type_0::SimdMult            0      0.00%     59.07% # Type of FU issued
system.switch_cpus0.iq.FU_type_0::SimdMultAcc            0      0.00%     59.07% # Type of FU issued
system.switch_cpus0.iq.FU_type_0::SimdShift            0      0.00%     59.07% # Type of FU issued
system.switch_cpus0.iq.FU_type_0::SimdShiftAcc            0      0.00%     59.07% # Type of FU issued
system.switch_cpus0.iq.FU_type_0::SimdDiv            0      0.00%     59.07% # Type of FU issued
system.switch_cpus0.iq.FU_type_0::SimdSqrt            0      0.00%     59.07% # Type of FU issued
system.switch_cpus0.iq.FU_type_0::SimdFloatAdd     37733251      8.82%     67.89% # Type of FU issued
system.switch_cpus0.iq.FU_type_0::SimdFloatAlu            0      0.00%     67.89% # Type of FU issued
system.switch_cpus0.iq.FU_type_0::SimdFloatCmp            0      0.00%     67.89% # Type of FU issued
system.switch_cpus0.iq.FU_type_0::SimdFloatCvt     47249511     11.05%     78.94% # Type of FU issued
system.switch_cpus0.iq.FU_type_0::SimdFloatDiv            0      0.00%     78.94% # Type of FU issued
system.switch_cpus0.iq.FU_type_0::SimdFloatMisc            0      0.00%     78.94% # Type of FU issued
system.switch_cpus0.iq.FU_type_0::SimdFloatMult     37731852      8.82%     87.76% # Type of FU issued
system.switch_cpus0.iq.FU_type_0::SimdFloatMultAcc            0      0.00%     87.76% # Type of FU issued
system.switch_cpus0.iq.FU_type_0::SimdFloatSqrt            0      0.00%     87.76% # Type of FU issued
system.switch_cpus0.iq.FU_type_0::SimdReduceAdd            0      0.00%     87.76% # Type of FU issued
system.switch_cpus0.iq.FU_type_0::SimdReduceAlu            0      0.00%     87.76% # Type of FU issued
system.switch_cpus0.iq.FU_type_0::SimdReduceCmp            0      0.00%     87.76% # Type of FU issued
system.switch_cpus0.iq.FU_type_0::SimdFloatReduceAdd            0      0.00%     87.76% # Type of FU issued
system.switch_cpus0.iq.FU_type_0::SimdFloatReduceCmp            0      0.00%     87.76% # Type of FU issued
system.switch_cpus0.iq.FU_type_0::SimdAes            0      0.00%     87.76% # Type of FU issued
system.switch_cpus0.iq.FU_type_0::SimdAesMix            0      0.00%     87.76% # Type of FU issued
system.switch_cpus0.iq.FU_type_0::SimdSha1Hash            0      0.00%     87.76% # Type of FU issued
system.switch_cpus0.iq.FU_type_0::SimdSha1Hash2            0      0.00%     87.76% # Type of FU issued
system.switch_cpus0.iq.FU_type_0::SimdSha256Hash            0      0.00%     87.76% # Type of FU issued
system.switch_cpus0.iq.FU_type_0::SimdSha256Hash2            0      0.00%     87.76% # Type of FU issued
system.switch_cpus0.iq.FU_type_0::SimdShaSigma2            0      0.00%     87.76% # Type of FU issued
system.switch_cpus0.iq.FU_type_0::SimdShaSigma3            0      0.00%     87.76% # Type of FU issued
system.switch_cpus0.iq.FU_type_0::SimdPredAlu            0      0.00%     87.76% # Type of FU issued
system.switch_cpus0.iq.FU_type_0::MemRead     39103257      9.14%     96.91% # Type of FU issued
system.switch_cpus0.iq.FU_type_0::MemWrite       924600      0.22%     97.12% # Type of FU issued
system.switch_cpus0.iq.FU_type_0::FloatMemRead     10923988      2.55%     99.68% # Type of FU issued
system.switch_cpus0.iq.FU_type_0::FloatMemWrite      1369934      0.32%    100.00% # Type of FU issued
system.switch_cpus0.iq.FU_type_0::IprAccess            0      0.00%    100.00% # Type of FU issued
system.switch_cpus0.iq.FU_type_0::InstPrefetch            0      0.00%    100.00% # Type of FU issued
system.switch_cpus0.iq.FU_type_0::total     427601220                       # Type of FU issued
system.switch_cpus0.iq.fp_alu_accesses      173585844                       # Number of floating point alu accesses
system.switch_cpus0.iq.fp_inst_queue_reads    346384151                       # Number of floating instruction queue reads
system.switch_cpus0.iq.fp_inst_queue_wakeup_accesses    172740320                       # Number of floating instruction queue wakeup accesses
system.switch_cpus0.iq.fp_inst_queue_writes    177351510                       # Number of floating instruction queue writes
system.switch_cpus0.iq.fu_busy_cnt            1551812                       # FU busy when requested
system.switch_cpus0.iq.fu_busy_rate          0.003629                       # FU busy rate (busy events/executed inst)
system.switch_cpus0.iq.fu_full::No_OpClass            0      0.00%      0.00% # attempts to use FU when none available
system.switch_cpus0.iq.fu_full::IntAlu         337932     21.78%     21.78% # attempts to use FU when none available
system.switch_cpus0.iq.fu_full::IntMult             0      0.00%     21.78% # attempts to use FU when none available
system.switch_cpus0.iq.fu_full::IntDiv              0      0.00%     21.78% # attempts to use FU when none available
system.switch_cpus0.iq.fu_full::FloatAdd            0      0.00%     21.78% # attempts to use FU when none available
system.switch_cpus0.iq.fu_full::FloatCmp            0      0.00%     21.78% # attempts to use FU when none available
system.switch_cpus0.iq.fu_full::FloatCvt            0      0.00%     21.78% # attempts to use FU when none available
system.switch_cpus0.iq.fu_full::FloatMult            0      0.00%     21.78% # attempts to use FU when none available
system.switch_cpus0.iq.fu_full::FloatMultAcc            0      0.00%     21.78% # attempts to use FU when none available
system.switch_cpus0.iq.fu_full::FloatDiv            0      0.00%     21.78% # attempts to use FU when none available
system.switch_cpus0.iq.fu_full::FloatMisc            0      0.00%     21.78% # attempts to use FU when none available
system.switch_cpus0.iq.fu_full::FloatSqrt            0      0.00%     21.78% # attempts to use FU when none available
system.switch_cpus0.iq.fu_full::SimdAdd             0      0.00%     21.78% # attempts to use FU when none available
system.switch_cpus0.iq.fu_full::SimdAddAcc            0      0.00%     21.78% # attempts to use FU when none available
system.switch_cpus0.iq.fu_full::SimdAlu          3359      0.22%     21.99% # attempts to use FU when none available
system.switch_cpus0.iq.fu_full::SimdCmp             0      0.00%     21.99% # attempts to use FU when none available
system.switch_cpus0.iq.fu_full::SimdCvt             0      0.00%     21.99% # attempts to use FU when none available
system.switch_cpus0.iq.fu_full::SimdMisc        14404      0.93%     22.92% # attempts to use FU when none available
system.switch_cpus0.iq.fu_full::SimdMult            0      0.00%     22.92% # attempts to use FU when none available
system.switch_cpus0.iq.fu_full::SimdMultAcc            0      0.00%     22.92% # attempts to use FU when none available
system.switch_cpus0.iq.fu_full::SimdShift            0      0.00%     22.92% # attempts to use FU when none available
system.switch_cpus0.iq.fu_full::SimdShiftAcc            0      0.00%     22.92% # attempts to use FU when none available
system.switch_cpus0.iq.fu_full::SimdDiv             0      0.00%     22.92% # attempts to use FU when none available
system.switch_cpus0.iq.fu_full::SimdSqrt            0      0.00%     22.92% # attempts to use FU when none available
system.switch_cpus0.iq.fu_full::SimdFloatAdd            0      0.00%     22.92% # attempts to use FU when none available
system.switch_cpus0.iq.fu_full::SimdFloatAlu            0      0.00%     22.92% # attempts to use FU when none available
system.switch_cpus0.iq.fu_full::SimdFloatCmp            0      0.00%     22.92% # attempts to use FU when none available
system.switch_cpus0.iq.fu_full::SimdFloatCvt       136386      8.79%     31.71% # attempts to use FU when none available
system.switch_cpus0.iq.fu_full::SimdFloatDiv            0      0.00%     31.71% # attempts to use FU when none available
system.switch_cpus0.iq.fu_full::SimdFloatMisc            0      0.00%     31.71% # attempts to use FU when none available
system.switch_cpus0.iq.fu_full::SimdFloatMult            0      0.00%     31.71% # attempts to use FU when none available
system.switch_cpus0.iq.fu_full::SimdFloatMultAcc            0      0.00%     31.71% # attempts to use FU when none available
system.switch_cpus0.iq.fu_full::SimdFloatSqrt            0      0.00%     31.71% # attempts to use FU when none available
system.switch_cpus0.iq.fu_full::SimdReduceAdd            0      0.00%     31.71% # attempts to use FU when none available
system.switch_cpus0.iq.fu_full::SimdReduceAlu            0      0.00%     31.71% # attempts to use FU when none available
system.switch_cpus0.iq.fu_full::SimdReduceCmp            0      0.00%     31.71% # attempts to use FU when none available
system.switch_cpus0.iq.fu_full::SimdFloatReduceAdd            0      0.00%     31.71% # attempts to use FU when none available
system.switch_cpus0.iq.fu_full::SimdFloatReduceCmp            0      0.00%     31.71% # attempts to use FU when none available
system.switch_cpus0.iq.fu_full::SimdAes             0      0.00%     31.71% # attempts to use FU when none available
system.switch_cpus0.iq.fu_full::SimdAesMix            0      0.00%     31.71% # attempts to use FU when none available
system.switch_cpus0.iq.fu_full::SimdSha1Hash            0      0.00%     31.71% # attempts to use FU when none available
system.switch_cpus0.iq.fu_full::SimdSha1Hash2            0      0.00%     31.71% # attempts to use FU when none available
system.switch_cpus0.iq.fu_full::SimdSha256Hash            0      0.00%     31.71% # attempts to use FU when none available
system.switch_cpus0.iq.fu_full::SimdSha256Hash2            0      0.00%     31.71% # attempts to use FU when none available
system.switch_cpus0.iq.fu_full::SimdShaSigma2            0      0.00%     31.71% # attempts to use FU when none available
system.switch_cpus0.iq.fu_full::SimdShaSigma3            0      0.00%     31.71% # attempts to use FU when none available
system.switch_cpus0.iq.fu_full::SimdPredAlu            0      0.00%     31.71% # attempts to use FU when none available
system.switch_cpus0.iq.fu_full::MemRead         91553      5.90%     37.61% # attempts to use FU when none available
system.switch_cpus0.iq.fu_full::MemWrite       334424     21.55%     59.16% # attempts to use FU when none available
system.switch_cpus0.iq.fu_full::FloatMemRead       438757     28.27%     87.43% # attempts to use FU when none available
system.switch_cpus0.iq.fu_full::FloatMemWrite       194997     12.57%    100.00% # attempts to use FU when none available
system.switch_cpus0.iq.fu_full::IprAccess            0      0.00%    100.00% # attempts to use FU when none available
system.switch_cpus0.iq.fu_full::InstPrefetch            0      0.00%    100.00% # attempts to use FU when none available
system.switch_cpus0.iq.int_alu_accesses     254882524                       # Number of integer alu accesses
system.switch_cpus0.iq.int_inst_queue_reads    611215073                       # Number of integer instruction queue reads
system.switch_cpus0.iq.int_inst_queue_wakeup_accesses    253856089                       # Number of integer instruction queue wakeup accesses
system.switch_cpus0.iq.int_inst_queue_writes    260012132                       # Number of integer instruction queue writes
system.switch_cpus0.iq.iqInstsAdded         429038090                       # Number of instructions added to the IQ (excludes non-spec)
system.switch_cpus0.iq.iqInstsIssued        427601220                       # Number of instructions issued
system.switch_cpus0.iq.iqNonSpecInstsAdded          544                       # Number of non-speculative instructions added to the IQ
system.switch_cpus0.iq.iqSquashedInstsExamined      8324930                       # Number of squashed instructions iterated over during squash; mainly for profiling
system.switch_cpus0.iq.iqSquashedInstsIssued         3101                       # Number of squashed instructions issued
system.switch_cpus0.iq.iqSquashedNonSpecRemoved          461                       # Number of squashed non-spec instructions that were removed
system.switch_cpus0.iq.iqSquashedOperandsExamined      4702292                       # Number of squashed operands that are examined and possibly removed from graph
system.switch_cpus0.iq.issued_per_cycle::samples    100841874                       # Number of insts issued each cycle
system.switch_cpus0.iq.issued_per_cycle::mean     4.240314                       # Number of insts issued each cycle
system.switch_cpus0.iq.issued_per_cycle::stdev     2.769756                       # Number of insts issued each cycle
system.switch_cpus0.iq.issued_per_cycle::underflows            0      0.00%      0.00% # Number of insts issued each cycle
system.switch_cpus0.iq.issued_per_cycle::0     16276807     16.14%     16.14% # Number of insts issued each cycle
system.switch_cpus0.iq.issued_per_cycle::1      5717091      5.67%     21.81% # Number of insts issued each cycle
system.switch_cpus0.iq.issued_per_cycle::2      8682057      8.61%     30.42% # Number of insts issued each cycle
system.switch_cpus0.iq.issued_per_cycle::3      8968661      8.89%     39.31% # Number of insts issued each cycle
system.switch_cpus0.iq.issued_per_cycle::4     11254124     11.16%     50.47% # Number of insts issued each cycle
system.switch_cpus0.iq.issued_per_cycle::5     11986015     11.89%     62.36% # Number of insts issued each cycle
system.switch_cpus0.iq.issued_per_cycle::6     10742061     10.65%     73.01% # Number of insts issued each cycle
system.switch_cpus0.iq.issued_per_cycle::7      9505369      9.43%     82.44% # Number of insts issued each cycle
system.switch_cpus0.iq.issued_per_cycle::8     17709689     17.56%    100.00% # Number of insts issued each cycle
system.switch_cpus0.iq.issued_per_cycle::overflows            0      0.00%    100.00% # Number of insts issued each cycle
system.switch_cpus0.iq.issued_per_cycle::min_value            0                       # Number of insts issued each cycle
system.switch_cpus0.iq.issued_per_cycle::max_value            8                       # Number of insts issued each cycle
system.switch_cpus0.iq.issued_per_cycle::total    100841874                       # Number of insts issued each cycle
system.switch_cpus0.iq.rate                  4.239168                       # Inst issue rate
system.switch_cpus0.iq.vec_alu_accesses             0                       # Number of vector alu accesses
system.switch_cpus0.iq.vec_inst_queue_reads            0                       # Number of vector instruction queue reads
system.switch_cpus0.iq.vec_inst_queue_wakeup_accesses            0                       # Number of vector instruction queue wakeup accesses
system.switch_cpus0.iq.vec_inst_queue_writes            0                       # Number of vector instruction queue writes
system.switch_cpus0.memDep0.conflictingLoads        14781                       # Number of conflicting loads.
system.switch_cpus0.memDep0.conflictingStores        46929                       # Number of conflicting stores.
system.switch_cpus0.memDep0.insertedLoads     50142731                       # Number of loads inserted to the mem dependence unit.
system.switch_cpus0.memDep0.insertedStores      2305461                       # Number of stores inserted to the mem dependence unit.
system.switch_cpus0.misc_regfile_reads      110682627                       # number of misc regfile reads
system.switch_cpus0.misc_regfile_writes             1                       # number of misc regfile writes
system.switch_cpus0.numCycles               100869136                       # number of cpu cycles simulated
system.switch_cpus0.numWorkItemsCompleted            0                       # number of work items this cpu completed
system.switch_cpus0.numWorkItemsStarted             0                       # number of work items this cpu started
system.switch_cpus0.timesIdled                    137                       # Number of times that the entire CPU went into an idle state and unscheduled itself
system.switch_cpus1.cc_regfile_reads        164268288                       # number of cc regfile reads
system.switch_cpus1.cc_regfile_writes       116829302                       # number of cc regfile writes
system.switch_cpus1.committedInsts          248123976                       # Number of Instructions Simulated
system.switch_cpus1.committedOps            419961031                       # Number of Ops (including micro ops) Simulated
system.switch_cpus1.cpi                      0.406527                       # CPI: Cycles Per Instruction
system.switch_cpus1.cpi_total                0.406527                       # CPI: Total CPI of All Threads
system.switch_cpus1.fp_regfile_reads        359453900                       # number of floating regfile reads
system.switch_cpus1.fp_regfile_writes       161590929                       # number of floating regfile writes
system.switch_cpus1.idleCycles                  32913                       # Total number of cycles that the CPU has spent unscheduled due to idling
system.switch_cpus1.iew.branchMispredicts       117147                       # Number of branch mispredicts detected at execute
system.switch_cpus1.iew.exec_branches        29119735                       # Number of branches executed
system.switch_cpus1.iew.exec_nop                    0                       # number of nop insts executed
system.switch_cpus1.iew.exec_rate            4.230328                       # Inst execution rate
system.switch_cpus1.iew.exec_refs            52187895                       # number of memory reference insts executed
system.switch_cpus1.iew.exec_stores           2292834                       # Number of stores executed
system.switch_cpus1.iew.exec_swp                    0                       # number of swp insts executed
system.switch_cpus1.iew.iewBlockCycles       10584534                       # Number of cycles IEW is blocking
system.switch_cpus1.iew.iewDispLoadInsts     50056953                       # Number of dispatched load instructions
system.switch_cpus1.iew.iewDispNonSpecInsts            0                       # Number of dispatched non-speculative instructions
system.switch_cpus1.iew.iewDispSquashedInsts         3669                       # Number of squashed instructions skipped by dispatch
system.switch_cpus1.iew.iewDispStoreInsts      2305555                       # Number of dispatched store instructions
system.switch_cpus1.iew.iewDispatchedInsts    428284513                       # Number of instructions dispatched to IQ
system.switch_cpus1.iew.iewExecLoadInsts     49895061                       # Number of load instructions executed
system.switch_cpus1.iew.iewExecSquashedInsts       138521                       # Number of squashed instructions skipped in execute
system.switch_cpus1.iew.iewExecutedInsts    426709507                       # Number of executed instructions
system.switch_cpus1.iew.iewIQFullEvents        232645                       # Number of times the IQ has become full, causing a stall
system.switch_cpus1.iew.iewIdleCycles               0                       # Number of cycles IEW is idle
system.switch_cpus1.iew.iewLSQFullEvents       144986                       # Number of times the LSQ has become full, causing a stall
system.switch_cpus1.iew.iewSquashCycles        173510                       # Number of cycles IEW is squashing
system.switch_cpus1.iew.iewUnblockCycles       493811                       # Number of cycles IEW is unblocking
system.switch_cpus1.iew.memOrderViolationEvents           77                       # Number of memory order violations
system.switch_cpus1.iew.predictedNotTakenIncorrect       113973                       # Number of branches that were predicted not taken incorrectly
system.switch_cpus1.iew.predictedTakenIncorrect         3174                       # Number of branches that were predicted taken incorrectly
system.switch_cpus1.iew.wb_consumers        633153716                       # num instructions consuming a value
system.switch_cpus1.iew.wb_count            425843793                       # cumulative count of insts written-back
system.switch_cpus1.iew.wb_fanout            0.591609                       # average fanout of values written-back
system.switch_cpus1.iew.wb_producers        374579694                       # num instructions producing a value
system.switch_cpus1.iew.wb_rate              4.221745                       # insts written-back per cycle
system.switch_cpus1.iew.wb_sent             426600260                       # cumulative count of insts sent to commit
system.switch_cpus1.int_regfile_reads       376466868                       # number of integer regfile reads
system.switch_cpus1.int_regfile_writes      223460307                       # number of integer regfile writes
system.switch_cpus1.ipc                      2.459860                       # IPC: Instructions Per Cycle
system.switch_cpus1.ipc_total                2.459860                       # IPC: Total IPC of All Threads
system.switch_cpus1.iq.FU_type_0::No_OpClass       684663      0.16%      0.16% # Type of FU issued
system.switch_cpus1.iq.FU_type_0::IntAlu    213699751     50.06%     50.22% # Type of FU issued
system.switch_cpus1.iq.FU_type_0::IntMult        35837      0.01%     50.23% # Type of FU issued
system.switch_cpus1.iq.FU_type_0::IntDiv           20      0.00%     50.23% # Type of FU issued
system.switch_cpus1.iq.FU_type_0::FloatAdd            1      0.00%     50.23% # Type of FU issued
system.switch_cpus1.iq.FU_type_0::FloatCmp            0      0.00%     50.23% # Type of FU issued
system.switch_cpus1.iq.FU_type_0::FloatCvt            0      0.00%     50.23% # Type of FU issued
system.switch_cpus1.iq.FU_type_0::FloatMult            0      0.00%     50.23% # Type of FU issued
system.switch_cpus1.iq.FU_type_0::FloatMultAcc            0      0.00%     50.23% # Type of FU issued
system.switch_cpus1.iq.FU_type_0::FloatDiv            0      0.00%     50.23% # Type of FU issued
system.switch_cpus1.iq.FU_type_0::FloatMisc            0      0.00%     50.23% # Type of FU issued
system.switch_cpus1.iq.FU_type_0::FloatSqrt            0      0.00%     50.23% # Type of FU issued
system.switch_cpus1.iq.FU_type_0::SimdAdd            0      0.00%     50.23% # Type of FU issued
system.switch_cpus1.iq.FU_type_0::SimdAddAcc            0      0.00%     50.23% # Type of FU issued
system.switch_cpus1.iq.FU_type_0::SimdAlu        28880      0.01%     50.24% # Type of FU issued
system.switch_cpus1.iq.FU_type_0::SimdCmp            0      0.00%     50.24% # Type of FU issued
system.switch_cpus1.iq.FU_type_0::SimdCvt            0      0.00%     50.24% # Type of FU issued
system.switch_cpus1.iq.FU_type_0::SimdMisc     37669458      8.83%     59.07% # Type of FU issued
system.switch_cpus1.iq.FU_type_0::SimdMult            0      0.00%     59.07% # Type of FU issued
system.switch_cpus1.iq.FU_type_0::SimdMultAcc            0      0.00%     59.07% # Type of FU issued
system.switch_cpus1.iq.FU_type_0::SimdShift            0      0.00%     59.07% # Type of FU issued
system.switch_cpus1.iq.FU_type_0::SimdShiftAcc            0      0.00%     59.07% # Type of FU issued
system.switch_cpus1.iq.FU_type_0::SimdDiv            0      0.00%     59.07% # Type of FU issued
system.switch_cpus1.iq.FU_type_0::SimdSqrt            0      0.00%     59.07% # Type of FU issued
system.switch_cpus1.iq.FU_type_0::SimdFloatAdd     37665289      8.82%     67.89% # Type of FU issued
system.switch_cpus1.iq.FU_type_0::SimdFloatAlu            0      0.00%     67.89% # Type of FU issued
system.switch_cpus1.iq.FU_type_0::SimdFloatCmp            0      0.00%     67.89% # Type of FU issued
system.switch_cpus1.iq.FU_type_0::SimdFloatCvt     47164237     11.05%     78.94% # Type of FU issued
system.switch_cpus1.iq.FU_type_0::SimdFloatDiv            0      0.00%     78.94% # Type of FU issued
system.switch_cpus1.iq.FU_type_0::SimdFloatMisc            0      0.00%     78.94% # Type of FU issued
system.switch_cpus1.iq.FU_type_0::SimdFloatMult     37663892      8.82%     87.76% # Type of FU issued
system.switch_cpus1.iq.FU_type_0::SimdFloatMultAcc            0      0.00%     87.76% # Type of FU issued
system.switch_cpus1.iq.FU_type_0::SimdFloatSqrt            0      0.00%     87.76% # Type of FU issued
system.switch_cpus1.iq.FU_type_0::SimdReduceAdd            0      0.00%     87.76% # Type of FU issued
system.switch_cpus1.iq.FU_type_0::SimdReduceAlu            0      0.00%     87.76% # Type of FU issued
system.switch_cpus1.iq.FU_type_0::SimdReduceCmp            0      0.00%     87.76% # Type of FU issued
system.switch_cpus1.iq.FU_type_0::SimdFloatReduceAdd            0      0.00%     87.76% # Type of FU issued
system.switch_cpus1.iq.FU_type_0::SimdFloatReduceCmp            0      0.00%     87.76% # Type of FU issued
system.switch_cpus1.iq.FU_type_0::SimdAes            0      0.00%     87.76% # Type of FU issued
system.switch_cpus1.iq.FU_type_0::SimdAesMix            0      0.00%     87.76% # Type of FU issued
system.switch_cpus1.iq.FU_type_0::SimdSha1Hash            0      0.00%     87.76% # Type of FU issued
system.switch_cpus1.iq.FU_type_0::SimdSha1Hash2            0      0.00%     87.76% # Type of FU issued
system.switch_cpus1.iq.FU_type_0::SimdSha256Hash            0      0.00%     87.76% # Type of FU issued
system.switch_cpus1.iq.FU_type_0::SimdSha256Hash2            0      0.00%     87.76% # Type of FU issued
system.switch_cpus1.iq.FU_type_0::SimdShaSigma2            0      0.00%     87.76% # Type of FU issued
system.switch_cpus1.iq.FU_type_0::SimdShaSigma3            0      0.00%     87.76% # Type of FU issued
system.switch_cpus1.iq.FU_type_0::SimdPredAlu            0      0.00%     87.76% # Type of FU issued
[...]
system.switch_cpus3.commit.numCommittedDist::stdev     3.484443                       # Number of insts commited each cycle
system.switch_cpus3.commit.numCommittedDist::underflows            0      0.00%      0.00% # Number of insts commited each cycle
system.switch_cpus3.commit.numCommittedDist::0     21020300     21.05%     21.05% # Number of insts commited each cycle
system.switch_cpus3.commit.numCommittedDist::1     20332685     20.36%     41.42% # Number of insts commited each cycle
system.switch_cpus3.commit.numCommittedDist::2        89163      0.09%     41.51% # Number of insts commited each cycle
system.switch_cpus3.commit.numCommittedDist::3     10457401     10.47%     51.98% # Number of insts commited each cycle
system.switch_cpus3.commit.numCommittedDist::4       135660      0.14%     52.11% # Number of insts commited each cycle
system.switch_cpus3.commit.numCommittedDist::5       904142      0.91%     53.02% # Number of insts commited each cycle
system.switch_cpus3.commit.numCommittedDist::6       179813      0.18%     53.20% # Number of insts commited each cycle
system.switch_cpus3.commit.numCommittedDist::7      8787694      8.80%     62.00% # Number of insts commited each cycle
system.switch_cpus3.commit.numCommittedDist::8     37940691     38.00%    100.00% # Number of insts commited each cycle
system.switch_cpus3.commit.numCommittedDist::overflows            0      0.00%    100.00% # Number of insts commited each cycle
system.switch_cpus3.commit.numCommittedDist::min_value            0                       # Number of insts commited each cycle
system.switch_cpus3.commit.numCommittedDist::max_value            8                       # Number of insts commited each cycle
system.switch_cpus3.commit.numCommittedDist::total     99847549                       # Number of insts commited each cycle
system.switch_cpus3.commit.instsCommitted    249958086                       # Number of instructions committed
system.switch_cpus3.commit.opsCommitted     423064828                       # Number of ops (including micro ops) committed
system.switch_cpus3.commit.memRefs           48813132                       # Number of memory references committed
system.switch_cpus3.commit.loads             48396643                       # Number of loads committed
system.switch_cpus3.commit.amos                     0                       # Number of atomic instructions committed
system.switch_cpus3.commit.membars                  0                       # Number of memory barriers committed
system.switch_cpus3.commit.branches          29128569                       # Number of branches committed
system.switch_cpus3.commit.vector                   0                       # Number of committed Vector instructions.
system.switch_cpus3.commit.floating         171052428                       # Number of committed floating point instructions.
system.switch_cpus3.commit.integer          299687301                       # Number of committed integer instructions.
system.switch_cpus3.commit.functionCalls        13881                       # Number of function calls committed.
system.switch_cpus3.commit.committedInstType_0::No_OpClass         1379      0.00%      0.00% # Class of committed instruction
system.switch_cpus3.commit.committedInstType_0::IntAlu    212906726     50.32%     50.33% # Class of committed instruction
system.switch_cpus3.commit.committedInstType_0::IntMult        35834      0.01%     50.33% # Class of committed instruction
system.switch_cpus3.commit.committedInstType_0::IntDiv           14      0.00%     50.33% # Class of committed instruction
system.switch_cpus3.commit.committedInstType_0::FloatAdd            1      0.00%     50.33% # Class of committed instruction
system.switch_cpus3.commit.committedInstType_0::FloatCmp            0      0.00%     50.33% # Class of committed instruction
system.switch_cpus3.commit.committedInstType_0::FloatCvt            0      0.00%     50.33% # Class of committed instruction
system.switch_cpus3.commit.committedInstType_0::FloatMult            0      0.00%     50.33% # Class of committed instruction
system.switch_cpus3.commit.committedInstType_0::FloatMultAcc            0      0.00%     50.33% # Class of committed instruction
system.switch_cpus3.commit.committedInstType_0::FloatDiv            0      0.00%     50.33% # Class of committed instruction
system.switch_cpus3.commit.committedInstType_0::FloatMisc            0      0.00%     50.33% # Class of committed instruction
system.switch_cpus3.commit.committedInstType_0::FloatSqrt            0      0.00%     50.33% # Class of committed instruction
system.switch_cpus3.commit.committedInstType_0::SimdAdd            0      0.00%     50.33% # Class of committed instruction
system.switch_cpus3.commit.committedInstType_0::SimdAddAcc            0      0.00%     50.33% # Class of committed instruction
system.switch_cpus3.commit.committedInstType_0::SimdAlu        22032      0.01%     50.34% # Class of committed instruction
system.switch_cpus3.commit.committedInstType_0::SimdCmp            0      0.00%     50.34% # Class of committed instruction
system.switch_cpus3.commit.committedInstType_0::SimdCvt            0      0.00%     50.34% # Class of committed instruction
system.switch_cpus3.commit.committedInstType_0::SimdMisc     37949671      8.97%     59.31% # Class of committed instruction
system.switch_cpus3.commit.committedInstType_0::SimdMult            0      0.00%     59.31% # Class of committed instruction
system.switch_cpus3.commit.committedInstType_0::SimdMultAcc            0      0.00%     59.31% # Class of committed instruction
system.switch_cpus3.commit.committedInstType_0::SimdShift            0      0.00%     59.31% # Class of committed instruction
system.switch_cpus3.commit.committedInstType_0::SimdShiftAcc            0      0.00%     59.31% # Class of committed instruction
system.switch_cpus3.commit.committedInstType_0::SimdDiv            0      0.00%     59.31% # Class of committed instruction
system.switch_cpus3.commit.committedInstType_0::SimdSqrt            0      0.00%     59.31% # Class of committed instruction
system.switch_cpus3.commit.committedInstType_0::SimdFloatAdd     37945534      8.97%     68.28% # Class of committed instruction
system.switch_cpus3.commit.committedInstType_0::SimdFloatAlu            0      0.00%     68.28% # Class of committed instruction
system.switch_cpus3.commit.committedInstType_0::SimdFloatCmp            0      0.00%     68.28% # Class of committed instruction
system.switch_cpus3.commit.committedInstType_0::SimdFloatCvt     47446348     11.21%     79.49% # Class of committed instruction
system.switch_cpus3.commit.committedInstType_0::SimdFloatDiv            0      0.00%     79.49% # Class of committed instruction
system.switch_cpus3.commit.committedInstType_0::SimdFloatMisc            0      0.00%     79.49% # Class of committed instruction
system.switch_cpus3.commit.committedInstType_0::SimdFloatMult     37944157      8.97%     88.46% # Class of committed instruction
system.switch_cpus3.commit.committedInstType_0::SimdFloatMultAcc            0      0.00%     88.46% # Class of committed instruction
system.switch_cpus3.commit.committedInstType_0::SimdFloatSqrt            0      0.00%     88.46% # Class of committed instruction
system.switch_cpus3.commit.committedInstType_0::SimdReduceAdd            0      0.00%     88.46% # Class of committed instruction
system.switch_cpus3.commit.committedInstType_0::SimdReduceAlu            0      0.00%     88.46% # Class of committed instruction
system.switch_cpus3.commit.committedInstType_0::SimdReduceCmp            0      0.00%     88.46% # Class of committed instruction
system.switch_cpus3.commit.committedInstType_0::SimdFloatReduceAdd            0      0.00%     88.46% # Class of committed instruction
system.switch_cpus3.commit.committedInstType_0::SimdFloatReduceCmp            0      0.00%     88.46% # Class of committed instruction
system.switch_cpus3.commit.committedInstType_0::SimdAes            0      0.00%     88.46% # Class of committed instruction
system.switch_cpus3.commit.committedInstType_0::SimdAesMix            0      0.00%     88.46% # Class of committed instruction
system.switch_cpus3.commit.committedInstType_0::SimdSha1Hash            0      0.00%     88.46% # Class of committed instruction
system.switch_cpus3.commit.committedInstType_0::SimdSha1Hash2            0      0.00%     88.46% # Class of committed instruction
system.switch_cpus3.commit.committedInstType_0::SimdSha256Hash            0      0.00%     88.46% # Class of committed instruction
system.switch_cpus3.commit.committedInstType_0::SimdSha256Hash2            0      0.00%     88.46% # Class of committed instruction
system.switch_cpus3.commit.committedInstType_0::SimdShaSigma2            0      0.00%     88.46% # Class of committed instruction
system.switch_cpus3.commit.committedInstType_0::SimdShaSigma3            0      0.00%     88.46% # Class of committed instruction
system.switch_cpus3.commit.committedInstType_0::SimdPredAlu            0      0.00%     88.46% # Class of committed instruction
system.switch_cpus3.commit.committedInstType_0::MemRead     38789048      9.17%     97.63% # Class of committed instruction
system.switch_cpus3.commit.committedInstType_0::MemWrite       297301      0.07%     97.70% # Class of committed instruction
system.switch_cpus3.commit.committedInstType_0::FloatMemRead      9607595      2.27%     99.97% # Class of committed instruction
system.switch_cpus3.commit.committedInstType_0::FloatMemWrite       119188      0.03%    100.00% # Class of committed instruction
system.switch_cpus3.commit.committedInstType_0::IprAccess            0      0.00%    100.00% # Class of committed instruction
system.switch_cpus3.commit.committedInstType_0::InstPrefetch            0      0.00%    100.00% # Class of committed instruction
system.switch_cpus3.commit.committedInstType_0::total    423064828                       # Class of committed instruction
system.switch_cpus3.commit.commitEligibleSamples     37940691                       # number cycles where commit BW limit reached
system.switch_cpus3.decode.idleCycles         7609725                       # Number of cycles decode is idle
system.switch_cpus3.decode.blockedCycles     38546448                       # Number of cycles decode is blocked
system.switch_cpus3.decode.runCycles         38994702                       # Number of cycles decode is running
system.switch_cpus3.decode.unblockCycles     15514477                       # Number of cycles decode is unblocking
system.switch_cpus3.decode.squashCycles        174358                       # Number of cycles decode is squashing
system.switch_cpus3.decode.branchResolved     10129957                       # Number of times decode resolved a  branch
system.switch_cpus3.decode.branchMispred           67                       # Number of times decode detected a branch misprediction
system.switch_cpus3.decode.decodedInsts     434058467                       # Number of instructions handled by decode
system.switch_cpus3.decode.squashedInsts          344                       # Number of squashed instructions handled by decode
system.switch_cpus3.dtb.rdAccesses           50248077                       # TLB accesses on read requests
system.switch_cpus3.dtb.wrAccesses            2292768                       # TLB accesses on write requests
system.switch_cpus3.dtb.rdMisses               157529                       # TLB misses on read requests
system.switch_cpus3.dtb.wrMisses                 1620                       # TLB misses on write requests
system.switch_cpus3.dtb.walker.power_state.pwrStateResidencyTicks::UNDEFINED 17361258082281                       # Cumulative time (in ticks) in various power states
system.switch_cpus3.fetch.icacheStallCycles       152368                       # Number of cycles fetch is stalled on an Icache miss
system.switch_cpus3.fetch.insts             258346378                       # Number of instructions fetch has processed
system.switch_cpus3.fetch.branches           29872385                       # Number of branches that fetch encountered
system.switch_cpus3.fetch.predictedBranches     10273272                       # Number of branches that fetch has predicted taken
system.switch_cpus3.fetch.cycles            100512920                       # Number of cycles fetch has run and was not squashing or blocked
system.switch_cpus3.fetch.squashCycles         348846                       # Number of cycles fetch has spent squashing
system.switch_cpus3.fetch.cacheLines         20353790                       # Number of cache lines fetched
system.switch_cpus3.fetch.icacheSquashes           98                       # Number of outstanding Icache misses that were squashed
system.switch_cpus3.fetch.nisnDist::samples    100839711                       # Number of instructions fetched each cycle (Total)
system.switch_cpus3.fetch.nisnDist::mean     4.363477                       # Number of instructions fetched each cycle (Total)
system.switch_cpus3.fetch.nisnDist::stdev     3.636470                       # Number of instructions fetched each cycle (Total)
system.switch_cpus3.fetch.nisnDist::underflows            0      0.00%      0.00% # Number of instructions fetched each cycle (Total)
system.switch_cpus3.fetch.nisnDist::0        30303840     30.05%     30.05% # Number of instructions fetched each cycle (Total)
system.switch_cpus3.fetch.nisnDist::1         9314978      9.24%     39.29% # Number of instructions fetched each cycle (Total)
system.switch_cpus3.fetch.nisnDist::2         1071639      1.06%     40.35% # Number of instructions fetched each cycle (Total)
system.switch_cpus3.fetch.nisnDist::3         7347127      7.29%     47.64% # Number of instructions fetched each cycle (Total)
system.switch_cpus3.fetch.nisnDist::4         1915825      1.90%     49.54% # Number of instructions fetched each cycle (Total)
system.switch_cpus3.fetch.nisnDist::5         1249092      1.24%     50.78% # Number of instructions fetched each cycle (Total)
system.switch_cpus3.fetch.nisnDist::6         1252024      1.24%     52.02% # Number of instructions fetched each cycle (Total)
system.switch_cpus3.fetch.nisnDist::7         1990270      1.97%     53.99% # Number of instructions fetched each cycle (Total)
system.switch_cpus3.fetch.nisnDist::8        46394916     46.01%    100.00% # Number of instructions fetched each cycle (Total)
system.switch_cpus3.fetch.nisnDist::overflows            0      0.00%    100.00% # Number of instructions fetched each cycle (Total)
system.switch_cpus3.fetch.nisnDist::min_value            0                       # Number of instructions fetched each cycle (Total)
system.switch_cpus3.fetch.nisnDist::max_value            8                       # Number of instructions fetched each cycle (Total)
system.switch_cpus3.fetch.nisnDist::total    100839711                       # Number of instructions fetched each cycle (Total)
system.switch_cpus3.fetch.branchRate         0.296150                       # Number of branch fetches per cycle
system.switch_cpus3.fetch.rate               2.561203                       # Number of inst fetches per cycle
system.switch_cpus3.itb.rdAccesses                  0                       # TLB accesses on read requests
system.switch_cpus3.itb.wrAccesses           20353790                       # TLB accesses on write requests
system.switch_cpus3.itb.rdMisses                    0                       # TLB misses on read requests
system.switch_cpus3.itb.wrMisses                   20                       # TLB misses on write requests
system.switch_cpus3.itb.walker.power_state.pwrStateResidencyTicks::UNDEFINED 17361258082281                       # Cumulative time (in ticks) in various power states
system.switch_cpus3.lsq0.forwLoads             154310                       # Number of loads that had data forwarded from stores
system.switch_cpus3.lsq0.squashedLoads        2016349                       # Number of loads squashed
system.switch_cpus3.lsq0.ignoredResponses            3                       # Number of memory responses ignored because the instruction is squashed
system.switch_cpus3.lsq0.memOrderViolation           76                       # Number of memory ordering violations
system.switch_cpus3.lsq0.squashedStores       1889005                       # Number of stores squashed
system.switch_cpus3.lsq0.rescheduledLoads            0                       # Number of loads that were rescheduled
system.switch_cpus3.lsq0.blockedByCache            88                       # Number of times an access to memory failed due to the cache being blocked
system.switch_cpus3.power_state.pwrStateResidencyTicks::OFF  33589432611                       # Cumulative time (in ticks) in various power states
system.switch_cpus3.rename.squashCycles        174358                       # Number of cycles rename is squashing
system.switch_cpus3.rename.idleCycles        14643649                       # Number of cycles rename is idle
system.switch_cpus3.rename.blockCycles       12718084                       # Number of cycles rename is blocking
system.switch_cpus3.rename.serializeStallCycles          231                       # count of cycles rename stalledfor serializing inst
system.switch_cpus3.rename.runCycles         47293281                       # Number of cycles rename is running
system.switch_cpus3.rename.unblockCycles     26010107                       # Number of cycles rename is unblocking
system.switch_cpus3.rename.renamedInsts     432734131                       # Number of instructions processed by rename
system.switch_cpus3.rename.ROBFullEvents       410110                       # Number of times rename has blocked due to ROB full
system.switch_cpus3.rename.IQFullEvents      15719089                       # Number of times rename has blocked due to IQ full
system.switch_cpus3.rename.LQFullEvents         34478                       # Number of times rename has blocked due to LQ full
system.switch_cpus3.rename.SQFullEvents       4214255                       # Number of times rename has blocked due to SQ full
system.switch_cpus3.rename.renamedOperands    508755463                       # Number of destination operands rename has renamed
system.switch_cpus3.rename.lookups         1025370221                       # Number of register rename lookups that rename has made
system.switch_cpus3.rename.intLookups       381576120                       # Number of integer rename lookups
system.switch_cpus3.rename.fpLookups        365611083                       # Number of floating rename lookups
system.switch_cpus3.rename.committedMaps    500158110                       # Number of HB maps that are committed
system.switch_cpus3.rename.undoneMaps         8597208                       # Number of HB maps that are undone due to squashing
system.switch_cpus3.rename.serializing              1                       # count of serializing insts renamed
system.switch_cpus3.rename.tempSerializing            1                       # count of temporary serializing insts renamed
system.switch_cpus3.rename.skidInsts         78945145                       # count of insts added to the skid buffer
system.switch_cpus3.rob.reads               491306881                       # The number of ROB reads
system.switch_cpus3.rob.writes              861277036                       # The number of ROB writes
system.switch_cpus3.thread0.numInsts        249958086                       # Number of Instructions committed
system.switch_cpus3.thread0.numOps          423064828                       # Number of Ops committed
system.switch_cpus3.thread0.numMemRefs              0                       # Number of Memory References
system.voltage_domain.voltage                       1                       # Voltage in Volts

---------- End Simulation Statistics   ----------
