
---------- Begin Simulation Statistics ----------
final_tick                               16258433017608                       # Number of ticks from beginning of simulation (restored from checkpoints and never reset)
host_inst_rate                                  66861                       # Simulator instruction rate (inst/s)
host_mem_usage                               17610668                       # Number of bytes of host memory used
host_op_rate                                    93541                       # Simulator op (including micro ops) rate (op/s)
host_seconds                                 14956.06                       # Real time elapsed on the host
host_tick_rate                               26679504                       # Simulator tick rate (ticks/s)
sim_freq                                 1000000000000                       # Frequency of simulated ticks
sim_insts                                   999979729                       # Number of instructions simulated
sim_ops                                    1398998662                       # Number of ops (including micro ops) simulated
sim_seconds                                  0.399020                       # Number of seconds simulated
sim_ticks                                399020198382                       # Number of ticks simulated
system.cpu0.committedInsts                         24                       # Number of instructions committed
system.cpu0.committedOps                           24                       # Number of ops (including micro ops) committed
system.cpu0.idle_fraction                           0                       # Percentage of idle cycles
system.cpu0.l2bus.snoop_filter.hit_multi_requests           21                       # Number of requests hitting in the snoop filter with multiple (>1) holders of the requested data.
system.cpu0.l2bus.snoop_filter.hit_multi_snoops            0                       # Number of snoops hitting in the snoop filter with multiple (>1) holders of the requested data.
system.cpu0.l2bus.snoop_filter.hit_single_requests     25081633                       # Number of requests hitting in the snoop filter with a single holder of the requested data.
system.cpu0.l2bus.snoop_filter.hit_single_snoops        97957                       # Number of snoops hitting in the snoop filter with a single holder of the requested data.
system.cpu0.l2bus.snoop_filter.tot_requests     50149496                       # Total number of requests made to the snoop filter.
system.cpu0.l2bus.snoop_filter.tot_snoops        97957                       # Total number of snoops made to the snoop filter.
system.cpu0.mmucache.mmubus.snoop_filter.hit_multi_requests            0                       # Number of requests hitting in the snoop filter with multiple (>1) holders of the requested data.
system.cpu0.mmucache.mmubus.snoop_filter.hit_multi_snoops            0                       # Number of snoops hitting in the snoop filter with multiple (>1) holders of the requested data.
system.cpu0.mmucache.mmubus.snoop_filter.hit_single_requests            0                       # Number of requests hitting in the snoop filter with a single holder of the requested data.
system.cpu0.mmucache.mmubus.snoop_filter.hit_single_snoops            0                       # Number of snoops hitting in the snoop filter with a single holder of the requested data.
system.cpu0.mmucache.mmubus.snoop_filter.tot_requests            0                       # Total number of requests made to the snoop filter.
system.cpu0.mmucache.mmubus.snoop_filter.tot_snoops            0                       # Total number of snoops made to the snoop filter.
system.cpu0.not_idle_fraction                       1                       # Percentage of non-idle cycles
system.cpu0.numCycles                              30                       # number of cpu cycles simulated
system.cpu0.numWorkItemsCompleted                   0                       # number of work items this cpu completed
system.cpu0.numWorkItemsStarted                     0                       # number of work items this cpu started
system.cpu0.num_busy_cycles                        30                       # Number of busy cycles
system.cpu0.num_conditional_control_insts            0                       # number of instructions that are conditional controls
system.cpu0.num_fp_alu_accesses                    24                       # Number of float alu accesses
system.cpu0.num_fp_insts                           24                       # number of float instructions
system.cpu0.num_fp_register_reads                  44                       # number of times the floating registers were read
system.cpu0.num_fp_register_writes                 22                       # number of times the floating registers were written
system.cpu0.num_func_calls                          0                       # number of times a function call or return occured
system.cpu0.num_idle_cycles                         0                       # Number of idle cycles
system.cpu0.num_int_alu_accesses                   10                       # Number of integer alu accesses
system.cpu0.num_int_insts                          10                       # number of integer instructions
system.cpu0.num_int_register_reads                 30                       # number of times the integer registers were read
system.cpu0.num_int_register_writes                 0                       # number of times the integer registers were written
system.cpu0.num_load_insts                          8                       # Number of load instructions
system.cpu0.num_mem_refs                           10                       # number of memory refs
system.cpu0.num_store_insts                         2                       # Number of store instructions
system.cpu0.num_vec_alu_accesses                    0                       # Number of vector alu accesses
system.cpu0.num_vec_insts                           0                       # number of vector instructions
system.cpu0.num_vec_register_reads                  0                       # number of times the vector registers were read
system.cpu0.num_vec_register_writes                 0                       # number of times the vector registers were written
system.cpu0.op_class::No_OpClass                    0      0.00%      0.00% # Class of executed instruction
system.cpu0.op_class::IntAlu                        0      0.00%      0.00% # Class of executed instruction
system.cpu0.op_class::IntMult                       0      0.00%      0.00% # Class of executed instruction
system.cpu0.op_class::IntDiv                        0      0.00%      0.00% # Class of executed instruction
system.cpu0.op_class::FloatAdd                      0      0.00%      0.00% # Class of executed instruction
system.cpu0.op_class::FloatCmp                      0      0.00%      0.00% # Class of executed instruction
system.cpu0.op_class::FloatCvt                      0      0.00%      0.00% # Class of executed instruction
system.cpu0.op_class::FloatMult                     0      0.00%      0.00% # Class of executed instruction
system.cpu0.op_class::FloatMultAcc                  0      0.00%      0.00% # Class of executed instruction
system.cpu0.op_class::FloatDiv                      0      0.00%      0.00% # Class of executed instruction
system.cpu0.op_class::FloatMisc                     0      0.00%      0.00% # Class of executed instruction
system.cpu0.op_class::FloatSqrt                     0      0.00%      0.00% # Class of executed instruction
system.cpu0.op_class::SimdAdd                       0      0.00%      0.00% # Class of executed instruction
system.cpu0.op_class::SimdAddAcc                    0      0.00%      0.00% # Class of executed instruction
system.cpu0.op_class::SimdAlu                       0      0.00%      0.00% # Class of executed instruction
system.cpu0.op_class::SimdCmp                       0      0.00%      0.00% # Class of executed instruction
system.cpu0.op_class::SimdCvt                       0      0.00%      0.00% # Class of executed instruction
system.cpu0.op_class::SimdMisc                      0      0.00%      0.00% # Class of executed instruction
system.cpu0.op_class::SimdMult                      0      0.00%      0.00% # Class of executed instruction
system.cpu0.op_class::SimdMultAcc                   0      0.00%      0.00% # Class of executed instruction
system.cpu0.op_class::SimdShift                     0      0.00%      0.00% # Class of executed instruction
system.cpu0.op_class::SimdShiftAcc                  0      0.00%      0.00% # Class of executed instruction
system.cpu0.op_class::SimdDiv                       0      0.00%      0.00% # Class of executed instruction
system.cpu0.op_class::SimdSqrt                      0      0.00%      0.00% # Class of executed instruction
system.cpu0.op_class::SimdFloatAdd                  6     25.00%     25.00% # Class of executed instruction
system.cpu0.op_class::SimdFloatAlu                  0      0.00%     25.00% # Class of executed instruction
system.cpu0.op_class::SimdFloatCmp                  0      0.00%     25.00% # Class of executed instruction
system.cpu0.op_class::SimdFloatCvt                  0      0.00%     25.00% # Class of executed instruction
system.cpu0.op_class::SimdFloatDiv                  0      0.00%     25.00% # Class of executed instruction
system.cpu0.op_class::SimdFloatMisc                 0      0.00%     25.00% # Class of executed instruction
system.cpu0.op_class::SimdFloatMult                 8     33.33%     58.33% # Class of executed instruction
system.cpu0.op_class::SimdFloatMultAcc              0      0.00%     58.33% # Class of executed instruction
system.cpu0.op_class::SimdFloatSqrt                 0      0.00%     58.33% # Class of executed instruction
system.cpu0.op_class::SimdReduceAdd                 0      0.00%     58.33% # Class of executed instruction
system.cpu0.op_class::SimdReduceAlu                 0      0.00%     58.33% # Class of executed instruction
system.cpu0.op_class::SimdReduceCmp                 0      0.00%     58.33% # Class of executed instruction
system.cpu0.op_class::SimdFloatReduceAdd            0      0.00%     58.33% # Class of executed instruction
system.cpu0.op_class::SimdFloatReduceCmp            0      0.00%     58.33% # Class of executed instruction
system.cpu0.op_class::SimdAes                       0      0.00%     58.33% # Class of executed instruction
system.cpu0.op_class::SimdAesMix                    0      0.00%     58.33% # Class of executed instruction
system.cpu0.op_class::SimdSha1Hash                  0      0.00%     58.33% # Class of executed instruction
system.cpu0.op_class::SimdSha1Hash2                 0      0.00%     58.33% # Class of executed instruction
system.cpu0.op_class::SimdSha256Hash                0      0.00%     58.33% # Class of executed instruction
system.cpu0.op_class::SimdSha256Hash2               0      0.00%     58.33% # Class of executed instruction
system.cpu0.op_class::SimdShaSigma2                 0      0.00%     58.33% # Class of executed instruction
system.cpu0.op_class::SimdShaSigma3                 0      0.00%     58.33% # Class of executed instruction
system.cpu0.op_class::SimdPredAlu                   0      0.00%     58.33% # Class of executed instruction
system.cpu0.op_class::MemRead                       0      0.00%     58.33% # Class of executed instruction
system.cpu0.op_class::MemWrite                      0      0.00%     58.33% # Class of executed instruction
system.cpu0.op_class::FloatMemRead                  8     33.33%     91.67% # Class of executed instruction
system.cpu0.op_class::FloatMemWrite                 2      8.33%    100.00% # Class of executed instruction
system.cpu0.op_class::IprAccess                     0      0.00%    100.00% # Class of executed instruction
system.cpu0.op_class::InstPrefetch                  0      0.00%    100.00% # Class of executed instruction
system.cpu0.op_class::total                        24                       # Class of executed instruction
system.cpu0.workload.numSyscalls                    0                       # Number of system calls
system.cpu1.committedInsts                         24                       # Number of instructions committed
system.cpu1.committedOps                           24                       # Number of ops (including micro ops) committed
system.cpu1.idle_fraction                           0                       # Percentage of idle cycles
system.cpu1.l2bus.snoop_filter.hit_multi_requests           17                       # Number of requests hitting in the snoop filter with multiple (>1) holders of the requested data.
system.cpu1.l2bus.snoop_filter.hit_multi_snoops            0                       # Number of snoops hitting in the snoop filter with multiple (>1) holders of the requested data.
system.cpu1.l2bus.snoop_filter.hit_single_requests     25081291                       # Number of requests hitting in the snoop filter with a single holder of the requested data.
system.cpu1.l2bus.snoop_filter.hit_single_snoops        99141                       # Number of snoops hitting in the snoop filter with a single holder of the requested data.
system.cpu1.l2bus.snoop_filter.tot_requests     50147712                       # Total number of requests made to the snoop filter.
system.cpu1.l2bus.snoop_filter.tot_snoops        99141                       # Total number of snoops made to the snoop filter.
system.cpu1.mmucache.mmubus.snoop_filter.hit_multi_requests            0                       # Number of requests hitting in the snoop filter with multiple (>1) holders of the requested data.
system.cpu1.mmucache.mmubus.snoop_filter.hit_multi_snoops            0                       # Number of snoops hitting in the snoop filter with multiple (>1) holders of the requested data.
system.cpu1.mmucache.mmubus.snoop_filter.hit_single_requests            0                       # Number of requests hitting in the snoop filter with a single holder of the requested data.
system.cpu1.mmucache.mmubus.snoop_filter.hit_single_snoops            0                       # Number of snoops hitting in the snoop filter with a single holder of the requested data.
system.cpu1.mmucache.mmubus.snoop_filter.tot_requests            0                       # Total number of requests made to the snoop filter.
system.cpu1.mmucache.mmubus.snoop_filter.tot_snoops            0                       # Total number of snoops made to the snoop filter.
system.cpu1.not_idle_fraction                       1                       # Percentage of non-idle cycles
system.cpu1.numCycles                              30                       # number of cpu cycles simulated
system.cpu1.numWorkItemsCompleted                   0                       # number of work items this cpu completed
system.cpu1.numWorkItemsStarted                     0                       # number of work items this cpu started
system.cpu1.num_busy_cycles                        30                       # Number of busy cycles
system.cpu1.num_conditional_control_insts            0                       # number of instructions that are conditional controls
system.cpu1.num_fp_alu_accesses                    24                       # Number of float alu accesses
system.cpu1.num_fp_insts                           24                       # number of float instructions
system.cpu1.num_fp_register_reads                  44                       # number of times the floating registers were read
system.cpu1.num_fp_register_writes                 22                       # number of times the floating registers were written
system.cpu1.num_func_calls                          0                       # number of times a function call or return occured
system.cpu1.num_idle_cycles                         0                       # Number of idle cycles
system.cpu1.num_int_alu_accesses                   10                       # Number of integer alu accesses
system.cpu1.num_int_insts                          10                       # number of integer instructions
system.cpu1.num_int_register_reads                 30                       # number of times the integer registers were read
system.cpu1.num_int_register_writes                 0                       # number of times the integer registers were written
system.cpu1.num_load_insts                          8                       # Number of load instructions
system.cpu1.num_mem_refs                           10                       # number of memory refs
system.cpu1.num_store_insts                         2                       # Number of store instructions
system.cpu1.num_vec_alu_accesses                    0                       # Number of vector alu accesses
system.cpu1.num_vec_insts                           0                       # number of vector instructions
system.cpu1.num_vec_register_reads                  0                       # number of times the vector registers were read
system.cpu1.num_vec_register_writes                 0                       # number of times the vector registers were written
system.cpu1.op_class::No_OpClass                    0      0.00%      0.00% # Class of executed instruction
system.cpu1.op_class::IntAlu                        0      0.00%      0.00% # Class of executed instruction
system.cpu1.op_class::IntMult                       0      0.00%      0.00% # Class of executed instruction
system.cpu1.op_class::IntDiv                        0      0.00%      0.00% # Class of executed instruction
system.cpu1.op_class::FloatAdd                      0      0.00%      0.00% # Class of executed instruction
system.cpu1.op_class::FloatCmp                      0      0.00%      0.00% # Class of executed instruction
system.cpu1.op_class::FloatCvt                      0      0.00%      0.00% # Class of executed instruction
system.cpu1.op_class::FloatMult                     0      0.00%      0.00% # Class of executed instruction
system.cpu1.op_class::FloatMultAcc                  0      0.00%      0.00% # Class of executed instruction
system.cpu1.op_class::FloatDiv                      0      0.00%      0.00% # Class of executed instruction
system.cpu1.op_class::FloatMisc                     0      0.00%      0.00% # Class of executed instruction
system.cpu1.op_class::FloatSqrt                     0      0.00%      0.00% # Class of executed instruction
system.cpu1.op_class::SimdAdd                       0      0.00%      0.00% # Class of executed instruction
system.cpu1.op_class::SimdAddAcc                    0      0.00%      0.00% # Class of executed instruction
system.cpu1.op_class::SimdAlu                       0      0.00%      0.00% # Class of executed instruction
system.cpu1.op_class::SimdCmp                       0      0.00%      0.00% # Class of executed instruction
system.cpu1.op_class::SimdCvt                       0      0.00%      0.00% # Class of executed instruction
system.cpu1.op_class::SimdMisc                      0      0.00%      0.00% # Class of executed instruction
system.cpu1.op_class::SimdMult                      0      0.00%      0.00% # Class of executed instruction
system.cpu1.op_class::SimdMultAcc                   0      0.00%      0.00% # Class of executed instruction
system.cpu1.op_class::SimdShift                     0      0.00%      0.00% # Class of executed instruction
system.cpu1.op_class::SimdShiftAcc                  0      0.00%      0.00% # Class of executed instruction
system.cpu1.op_class::SimdDiv                       0      0.00%      0.00% # Class of executed instruction
system.cpu1.op_class::SimdSqrt                      0      0.00%      0.00% # Class of executed instruction
system.cpu1.op_class::SimdFloatAdd                  6     25.00%     25.00% # Class of executed instruction
system.cpu1.op_class::SimdFloatAlu                  0      0.00%     25.00% # Class of executed instruction
system.cpu1.op_class::SimdFloatCmp                  0      0.00%     25.00% # Class of executed instruction
system.cpu1.op_class::SimdFloatCvt                  0      0.00%     25.00% # Class of executed instruction
system.cpu1.op_class::SimdFloatDiv                  0      0.00%     25.00% # Class of executed instruction
system.cpu1.op_class::SimdFloatMisc                 0      0.00%     25.00% # Class of executed instruction
system.cpu1.op_class::SimdFloatMult                 8     33.33%     58.33% # Class of executed instruction
system.cpu1.op_class::SimdFloatMultAcc              0      0.00%     58.33% # Class of executed instruction
system.cpu1.op_class::SimdFloatSqrt                 0      0.00%     58.33% # Class of executed instruction
system.cpu1.op_class::SimdReduceAdd                 0      0.00%     58.33% # Class of executed instruction
system.cpu1.op_class::SimdReduceAlu                 0      0.00%     58.33% # Class of executed instruction
system.cpu1.op_class::SimdReduceCmp                 0      0.00%     58.33% # Class of executed instruction
system.cpu1.op_class::SimdFloatReduceAdd            0      0.00%     58.33% # Class of executed instruction
system.cpu1.op_class::SimdFloatReduceCmp            0      0.00%     58.33% # Class of executed instruction
system.cpu1.op_class::SimdAes                       0      0.00%     58.33% # Class of executed instruction
system.cpu1.op_class::SimdAesMix                    0      0.00%     58.33% # Class of executed instruction
system.cpu1.op_class::SimdSha1Hash                  0      0.00%     58.33% # Class of executed instruction
system.cpu1.op_class::SimdSha1Hash2                 0      0.00%     58.33% # Class of executed instruction
system.cpu1.op_class::SimdSha256Hash                0      0.00%     58.33% # Class of executed instruction
system.cpu1.op_class::SimdSha256Hash2               0      0.00%     58.33% # Class of executed instruction
system.cpu1.op_class::SimdShaSigma2                 0      0.00%     58.33% # Class of executed instruction
system.cpu1.op_class::SimdShaSigma3                 0      0.00%     58.33% # Class of executed instruction
system.cpu1.op_class::SimdPredAlu                   0      0.00%     58.33% # Class of executed instruction
system.cpu1.op_class::MemRead                       0      0.00%     58.33% # Class of executed instruction
system.cpu1.op_class::MemWrite                      0      0.00%     58.33% # Class of executed instruction
system.cpu1.op_class::FloatMemRead                  8     33.33%     91.67% # Class of executed instruction
system.cpu1.op_class::FloatMemWrite                 2      8.33%    100.00% # Class of executed instruction
system.cpu1.op_class::IprAccess                     0      0.00%    100.00% # Class of executed instruction
system.cpu1.op_class::InstPrefetch                  0      0.00%    100.00% # Class of executed instruction
system.cpu1.op_class::total                        24                       # Class of executed instruction
system.cpu1.workload.numSyscalls                    0                       # Number of system calls
system.cpu2.committedInsts                         24                       # Number of instructions committed
system.cpu2.committedOps                           24                       # Number of ops (including micro ops) committed
system.cpu2.idle_fraction                           0                       # Percentage of idle cycles
system.cpu2.l2bus.snoop_filter.hit_multi_requests           18                       # Number of requests hitting in the snoop filter with multiple (>1) holders of the requested data.
system.cpu2.l2bus.snoop_filter.hit_multi_snoops            0                       # Number of snoops hitting in the snoop filter with multiple (>1) holders of the requested data.
system.cpu2.l2bus.snoop_filter.hit_single_requests     25087042                       # Number of requests hitting in the snoop filter with a single holder of the requested data.
system.cpu2.l2bus.snoop_filter.hit_single_snoops        98830                       # Number of snoops hitting in the snoop filter with a single holder of the requested data.
system.cpu2.l2bus.snoop_filter.tot_requests     50159176                       # Total number of requests made to the snoop filter.
system.cpu2.l2bus.snoop_filter.tot_snoops        98830                       # Total number of snoops made to the snoop filter.
system.cpu2.mmucache.mmubus.snoop_filter.hit_multi_requests            0                       # Number of requests hitting in the snoop filter with multiple (>1) holders of the requested data.
system.cpu2.mmucache.mmubus.snoop_filter.hit_multi_snoops            0                       # Number of snoops hitting in the snoop filter with multiple (>1) holders of the requested data.
system.cpu2.mmucache.mmubus.snoop_filter.hit_single_requests            0                       # Number of requests hitting in the snoop filter with a single holder of the requested data.
system.cpu2.mmucache.mmubus.snoop_filter.hit_single_snoops            0                       # Number of snoops hitting in the snoop filter with a single holder of the requested data.
system.cpu2.mmucache.mmubus.snoop_filter.tot_requests            0                       # Total number of requests made to the snoop filter.
system.cpu2.mmucache.mmubus.snoop_filter.tot_snoops            0                       # Total number of snoops made to the snoop filter.
system.cpu2.not_idle_fraction                       1                       # Percentage of non-idle cycles
system.cpu2.numCycles                              30                       # number of cpu cycles simulated
system.cpu2.numWorkItemsCompleted                   0                       # number of work items this cpu completed
system.cpu2.numWorkItemsStarted                     0                       # number of work items this cpu started
system.cpu2.num_busy_cycles                        30                       # Number of busy cycles
system.cpu2.num_conditional_control_insts            0                       # number of instructions that are conditional controls
system.cpu2.num_fp_alu_accesses                    24                       # Number of float alu accesses
system.cpu2.num_fp_insts                           24                       # number of float instructions
system.cpu2.num_fp_register_reads                  44                       # number of times the floating registers were read
system.cpu2.num_fp_register_writes                 22                       # number of times the floating registers were written
system.cpu2.num_func_calls                          0                       # number of times a function call or return occured
system.cpu2.num_idle_cycles                         0                       # Number of idle cycles
system.cpu2.num_int_alu_accesses                   10                       # Number of integer alu accesses
system.cpu2.num_int_insts                          10                       # number of integer instructions
system.cpu2.num_int_register_reads                 30                       # number of times the integer registers were read
system.cpu2.num_int_register_writes                 0                       # number of times the integer registers were written
system.cpu2.num_load_insts                          8                       # Number of load instructions
system.cpu2.num_mem_refs                           10                       # number of memory refs
system.cpu2.num_store_insts                         2                       # Number of store instructions
system.cpu2.num_vec_alu_accesses                    0                       # Number of vector alu accesses
system.cpu2.num_vec_insts                           0                       # number of vector instructions
system.cpu2.num_vec_register_reads                  0                       # number of times the vector registers were read
system.cpu2.num_vec_register_writes                 0                       # number of times the vector registers were written
system.cpu2.op_class::No_OpClass                    0      0.00%      0.00% # Class of executed instruction
system.cpu2.op_class::IntAlu                        0      0.00%      0.00% # Class of executed instruction
system.cpu2.op_class::IntMult                       0      0.00%      0.00% # Class of executed instruction
system.cpu2.op_class::IntDiv                        0      0.00%      0.00% # Class of executed instruction
system.cpu2.op_class::FloatAdd                      0      0.00%      0.00% # Class of executed instruction
system.cpu2.op_class::FloatCmp                      0      0.00%      0.00% # Class of executed instruction
system.cpu2.op_class::FloatCvt                      0      0.00%      0.00% # Class of executed instruction
system.cpu2.op_class::FloatMult                     0      0.00%      0.00% # Class of executed instruction
system.cpu2.op_class::FloatMultAcc                  0      0.00%      0.00% # Class of executed instruction
system.cpu2.op_class::FloatDiv                      0      0.00%      0.00% # Class of executed instruction
system.cpu2.op_class::FloatMisc                     0      0.00%      0.00% # Class of executed instruction
system.cpu2.op_class::FloatSqrt                     0      0.00%      0.00% # Class of executed instruction
system.cpu2.op_class::SimdAdd                       0      0.00%      0.00% # Class of executed instruction
system.cpu2.op_class::SimdAddAcc                    0      0.00%      0.00% # Class of executed instruction
system.cpu2.op_class::SimdAlu                       0      0.00%      0.00% # Class of executed instruction
system.cpu2.op_class::SimdCmp                       0      0.00%      0.00% # Class of executed instruction
system.cpu2.op_class::SimdCvt                       0      0.00%      0.00% # Class of executed instruction
system.cpu2.op_class::SimdMisc                      0      0.00%      0.00% # Class of executed instruction
system.cpu2.op_class::SimdMult                      0      0.00%      0.00% # Class of executed instruction
system.cpu2.op_class::SimdMultAcc                   0      0.00%      0.00% # Class of executed instruction
system.cpu2.op_class::SimdShift                     0      0.00%      0.00% # Class of executed instruction
system.cpu2.op_class::SimdShiftAcc                  0      0.00%      0.00% # Class of executed instruction
system.cpu2.op_class::SimdDiv                       0      0.00%      0.00% # Class of executed instruction
system.cpu2.op_class::SimdSqrt                      0      0.00%      0.00% # Class of executed instruction
system.cpu2.op_class::SimdFloatAdd                  6     25.00%     25.00% # Class of executed instruction
system.cpu2.op_class::SimdFloatAlu                  0      0.00%     25.00% # Class of executed instruction
system.cpu2.op_class::SimdFloatCmp                  0      0.00%     25.00% # Class of executed instruction
system.cpu2.op_class::SimdFloatCvt                  0      0.00%     25.00% # Class of executed instruction
system.cpu2.op_class::SimdFloatDiv                  0      0.00%     25.00% # Class of executed instruction
system.cpu2.op_class::SimdFloatMisc                 0      0.00%     25.00% # Class of executed instruction
system.cpu2.op_class::SimdFloatMult                 8     33.33%     58.33% # Class of executed instruction
system.cpu2.op_class::SimdFloatMultAcc              0      0.00%     58.33% # Class of executed instruction
system.cpu2.op_class::SimdFloatSqrt                 0      0.00%     58.33% # Class of executed instruction
system.cpu2.op_class::SimdReduceAdd                 0      0.00%     58.33% # Class of executed instruction
system.cpu2.op_class::SimdReduceAlu                 0      0.00%     58.33% # Class of executed instruction
system.cpu2.op_class::SimdReduceCmp                 0      0.00%     58.33% # Class of executed instruction
system.cpu2.op_class::SimdFloatReduceAdd            0      0.00%     58.33% # Class of executed instruction
system.cpu2.op_class::SimdFloatReduceCmp            0      0.00%     58.33% # Class of executed instruction
system.cpu2.op_class::SimdAes                       0      0.00%     58.33% # Class of executed instruction
system.cpu2.op_class::SimdAesMix                    0      0.00%     58.33% # Class of executed instruction
system.cpu2.op_class::SimdSha1Hash                  0      0.00%     58.33% # Class of executed instruction
system.cpu2.op_class::SimdSha1Hash2                 0      0.00%     58.33% # Class of executed instruction
system.cpu2.op_class::SimdSha256Hash                0      0.00%     58.33% # Class of executed instruction
system.cpu2.op_class::SimdSha256Hash2               0      0.00%     58.33% # Class of executed instruction
system.cpu2.op_class::SimdShaSigma2                 0      0.00%     58.33% # Class of executed instruction
system.cpu2.op_class::SimdShaSigma3                 0      0.00%     58.33% # Class of executed instruction
system.cpu2.op_class::SimdPredAlu                   0      0.00%     58.33% # Class of executed instruction
system.cpu2.op_class::MemRead                       0      0.00%     58.33% # Class of executed instruction
system.cpu2.op_class::MemWrite                      0      0.00%     58.33% # Class of executed instruction
system.cpu2.op_class::FloatMemRead                  8     33.33%     91.67% # Class of executed instruction
system.cpu2.op_class::FloatMemWrite                 2      8.33%    100.00% # Class of executed instruction
system.cpu2.op_class::IprAccess                     0      0.00%    100.00% # Class of executed instruction
system.cpu2.op_class::InstPrefetch                  0      0.00%    100.00% # Class of executed instruction
system.cpu2.op_class::total                        24                       # Class of executed instruction
system.cpu2.workload.numSyscalls                    0                       # Number of system calls
system.cpu3.committedInsts                         24                       # Number of instructions committed
system.cpu3.committedOps                           24                       # Number of ops (including micro ops) committed
system.cpu3.idle_fraction                           0                       # Percentage of idle cycles
system.cpu3.l2bus.snoop_filter.hit_multi_requests           19                       # Number of requests hitting in the snoop filter with multiple (>1) holders of the requested data.
system.cpu3.l2bus.snoop_filter.hit_multi_snoops            0                       # Number of snoops hitting in the snoop filter with multiple (>1) holders of the requested data.
system.cpu3.l2bus.snoop_filter.hit_single_requests     25083702                       # Number of requests hitting in the snoop filter with a single holder of the requested data.
system.cpu3.l2bus.snoop_filter.hit_single_snoops        97815                       # Number of snoops hitting in the snoop filter with a single holder of the requested data.
system.cpu3.l2bus.snoop_filter.tot_requests     50153613                       # Total number of requests made to the snoop filter.
system.cpu3.l2bus.snoop_filter.tot_snoops        97815                       # Total number of snoops made to the snoop filter.
system.cpu3.mmucache.mmubus.snoop_filter.hit_multi_requests            0                       # Number of requests hitting in the snoop filter with multiple (>1) holders of the requested data.
system.cpu3.mmucache.mmubus.snoop_filter.hit_multi_snoops            0                       # Number of snoops hitting in the snoop filter with multiple (>1) holders of the requested data.
system.cpu3.mmucache.mmubus.snoop_filter.hit_single_requests            0                       # Number of requests hitting in the snoop filter with a single holder of the requested data.
system.cpu3.mmucache.mmubus.snoop_filter.hit_single_snoops            0                       # Number of snoops hitting in the snoop filter with a single holder of the requested data.
system.cpu3.mmucache.mmubus.snoop_filter.tot_requests            0                       # Total number of requests made to the snoop filter.
system.cpu3.mmucache.mmubus.snoop_filter.tot_snoops            0                       # Total number of snoops made to the snoop filter.
system.cpu3.not_idle_fraction                       1                       # Percentage of non-idle cycles
system.cpu3.numCycles                              30                       # number of cpu cycles simulated
system.cpu3.numWorkItemsCompleted                   0                       # number of work items this cpu completed
system.cpu3.numWorkItemsStarted                     0                       # number of work items this cpu started
system.cpu3.num_busy_cycles                        30                       # Number of busy cycles
system.cpu3.num_conditional_control_insts            0                       # number of instructions that are conditional controls
system.cpu3.num_fp_alu_accesses                    24                       # Number of float alu accesses
system.cpu3.num_fp_insts                           24                       # number of float instructions
system.cpu3.num_fp_register_reads                  44                       # number of times the floating registers were read
system.cpu3.num_fp_register_writes                 22                       # number of times the floating registers were written
system.cpu3.num_func_calls                          0                       # number of times a function call or return occured
system.cpu3.num_idle_cycles                         0                       # Number of idle cycles
system.cpu3.num_int_alu_accesses                   10                       # Number of integer alu accesses
system.cpu3.num_int_insts                          10                       # number of integer instructions
system.cpu3.num_int_register_reads                 30                       # number of times the integer registers were read
system.cpu3.num_int_register_writes                 0                       # number of times the integer registers were written
system.cpu3.num_load_insts                          8                       # Number of load instructions
system.cpu3.num_mem_refs                           10                       # number of memory refs
system.cpu3.num_store_insts                         2                       # Number of store instructions
system.cpu3.num_vec_alu_accesses                    0                       # Number of vector alu accesses
system.cpu3.num_vec_insts                           0                       # number of vector instructions
system.cpu3.num_vec_register_reads                  0                       # number of times the vector registers were read
system.cpu3.num_vec_register_writes                 0                       # number of times the vector registers were written
system.cpu3.op_class::No_OpClass                    0      0.00%      0.00% # Class of executed instruction
system.cpu3.op_class::IntAlu                        0      0.00%      0.00% # Class of executed instruction
system.cpu3.op_class::IntMult                       0      0.00%      0.00% # Class of executed instruction
system.cpu3.op_class::IntDiv                        0      0.00%      0.00% # Class of executed instruction
system.cpu3.op_class::FloatAdd                      0      0.00%      0.00% # Class of executed instruction
system.cpu3.op_class::FloatCmp                      0      0.00%      0.00% # Class of executed instruction
system.cpu3.op_class::FloatCvt                      0      0.00%      0.00% # Class of executed instruction
system.cpu3.op_class::FloatMult                     0      0.00%      0.00% # Class of executed instruction
system.cpu3.op_class::FloatMultAcc                  0      0.00%      0.00% # Class of executed instruction
system.cpu3.op_class::FloatDiv                      0      0.00%      0.00% # Class of executed instruction
system.cpu3.op_class::FloatMisc                     0      0.00%      0.00% # Class of executed instruction
system.cpu3.op_class::FloatSqrt                     0      0.00%      0.00% # Class of executed instruction
system.cpu3.op_class::SimdAdd                       0      0.00%      0.00% # Class of executed instruction
system.cpu3.op_class::SimdAddAcc                    0      0.00%      0.00% # Class of executed instruction
system.cpu3.op_class::SimdAlu                       0      0.00%      0.00% # Class of executed instruction
system.cpu3.op_class::SimdCmp                       0      0.00%      0.00% # Class of executed instruction
system.cpu3.op_class::SimdCvt                       0      0.00%      0.00% # Class of executed instruction
system.cpu3.op_class::SimdMisc                      0      0.00%      0.00% # Class of executed instruction
system.cpu3.op_class::SimdMult                      0      0.00%      0.00% # Class of executed instruction
system.cpu3.op_class::SimdMultAcc                   0      0.00%      0.00% # Class of executed instruction
system.cpu3.op_class::SimdShift                     0      0.00%      0.00% # Class of executed instruction
system.cpu3.op_class::SimdShiftAcc                  0      0.00%      0.00% # Class of executed instruction
system.cpu3.op_class::SimdDiv                       0      0.00%      0.00% # Class of executed instruction
system.cpu3.op_class::SimdSqrt                      0      0.00%      0.00% # Class of executed instruction
system.cpu3.op_class::SimdFloatAdd                  6     25.00%     25.00% # Class of executed instruction
system.cpu3.op_class::SimdFloatAlu                  0      0.00%     25.00% # Class of executed instruction
system.cpu3.op_class::SimdFloatCmp                  0      0.00%     25.00% # Class of executed instruction
system.cpu3.op_class::SimdFloatCvt                  0      0.00%     25.00% # Class of executed instruction
system.cpu3.op_class::SimdFloatDiv                  0      0.00%     25.00% # Class of executed instruction
system.cpu3.op_class::SimdFloatMisc                 0      0.00%     25.00% # Class of executed instruction
system.cpu3.op_class::SimdFloatMult                 8     33.33%     58.33% # Class of executed instruction
system.cpu3.op_class::SimdFloatMultAcc              0      0.00%     58.33% # Class of executed instruction
system.cpu3.op_class::SimdFloatSqrt                 0      0.00%     58.33% # Class of executed instruction
system.cpu3.op_class::SimdReduceAdd                 0      0.00%     58.33% # Class of executed instruction
system.cpu3.op_class::SimdReduceAlu                 0      0.00%     58.33% # Class of executed instruction
system.cpu3.op_class::SimdReduceCmp                 0      0.00%     58.33% # Class of executed instruction
system.cpu3.op_class::SimdFloatReduceAdd            0      0.00%     58.33% # Class of executed instruction
system.cpu3.op_class::SimdFloatReduceCmp            0      0.00%     58.33% # Class of executed instruction
system.cpu3.op_class::SimdAes                       0      0.00%     58.33% # Class of executed instruction
system.cpu3.op_class::SimdAesMix                    0      0.00%     58.33% # Class of executed instruction
system.cpu3.op_class::SimdSha1Hash                  0      0.00%     58.33% # Class of executed instruction
system.cpu3.op_class::SimdSha1Hash2                 0      0.00%     58.33% # Class of executed instruction
system.cpu3.op_class::SimdSha256Hash                0      0.00%     58.33% # Class of executed instruction
system.cpu3.op_class::SimdSha256Hash2               0      0.00%     58.33% # Class of executed instruction
system.cpu3.op_class::SimdShaSigma2                 0      0.00%     58.33% # Class of executed instruction
system.cpu3.op_class::SimdShaSigma3                 0      0.00%     58.33% # Class of executed instruction
system.cpu3.op_class::SimdPredAlu                   0      0.00%     58.33% # Class of executed instruction
system.cpu3.op_class::MemRead                       0      0.00%     58.33% # Class of executed instruction
system.cpu3.op_class::MemWrite                      0      0.00%     58.33% # Class of executed instruction
system.cpu3.op_class::FloatMemRead                  8     33.33%     91.67% # Class of executed instruction
system.cpu3.op_class::FloatMemWrite                 2      8.33%    100.00% # Class of executed instruction
system.cpu3.op_class::IprAccess                     0      0.00%    100.00% # Class of executed instruction
system.cpu3.op_class::InstPrefetch                  0      0.00%    100.00% # Class of executed instruction
system.cpu3.op_class::total                        24                       # Class of executed instruction
system.cpu3.workload.numSyscalls                    0                       # Number of system calls
system.l3bus.snoop_filter.hit_multi_requests            0                       # Number of requests hitting in the snoop filter with multiple (>1) holders of the requested data.
system.l3bus.snoop_filter.hit_multi_snoops            0                       # Number of snoops hitting in the snoop filter with multiple (>1) holders of the requested data.
system.l3bus.snoop_filter.hit_single_requests     45082030                       # Number of requests hitting in the snoop filter with a single holder of the requested data.
system.l3bus.snoop_filter.hit_single_snoops            2                       # Number of snoops hitting in the snoop filter with a single holder of the requested data.
system.l3bus.snoop_filter.tot_requests       90397622                       # Total number of requests made to the snoop filter.
system.l3bus.snoop_filter.tot_snoops                2                       # Total number of snoops made to the snoop filter.
system.membus.snoop_filter.hit_multi_requests            0                       # Number of requests hitting in the snoop filter with multiple (>1) holders of the requested data.
system.membus.snoop_filter.hit_multi_snoops            0                       # Number of snoops hitting in the snoop filter with multiple (>1) holders of the requested data.
system.membus.snoop_filter.hit_single_requests     16345135                       # Number of requests hitting in the snoop filter with a single holder of the requested data.
system.membus.snoop_filter.hit_single_snoops            0                       # Number of snoops hitting in the snoop filter with a single holder of the requested data.
system.membus.snoop_filter.tot_requests      32763552                       # Total number of requests made to the snoop filter.
system.membus.snoop_filter.tot_snoops               0                       # Total number of snoops made to the snoop filter.
system.switch_cpus0.cc_regfile_reads         71043219                       # number of cc regfile reads
system.switch_cpus0.cc_regfile_writes        51301374                       # number of cc regfile writes
system.switch_cpus0.committedInsts          250000000                       # Number of Instructions Simulated
system.switch_cpus0.committedOps            349757009                       # Number of Ops (including micro ops) Simulated
system.switch_cpus0.cpi                      4.793035                       # CPI: Cycles Per Instruction
system.switch_cpus0.cpi_total                4.793035                       # CPI: Total CPI of All Threads
system.switch_cpus0.fp_regfile_reads        296813637                       # number of floating regfile reads
system.switch_cpus0.fp_regfile_writes       151658014                       # number of floating regfile writes
system.switch_cpus0.idleCycles                 384577                       # Total number of cycles that the CPU has spent unscheduled due to idling
system.switch_cpus0.iew.branchMispredicts        21795                       # Number of branch mispredicts detected at execute
system.switch_cpus0.iew.exec_branches        19587135                       # Number of branches executed
system.switch_cpus0.iew.exec_nop                    0                       # number of nop insts executed
system.switch_cpus0.iew.exec_rate            0.293872                       # Inst execution rate
system.switch_cpus0.iew.exec_refs           130472571                       # number of memory reference insts executed
system.switch_cpus0.iew.exec_stores          36758247                       # Number of stores executed
system.switch_cpus0.iew.exec_swp                    0                       # number of swp insts executed
system.switch_cpus0.iew.iewBlockCycles      180130182                       # Number of cycles IEW is blocking
system.switch_cpus0.iew.iewDispLoadInsts     91697229                       # Number of dispatched load instructions
system.switch_cpus0.iew.iewDispNonSpecInsts            7                       # Number of dispatched non-speculative instructions
system.switch_cpus0.iew.iewDispSquashedInsts          351                       # Number of squashed instructions skipped by dispatch
system.switch_cpus0.iew.iewDispStoreInsts     36803054                       # Number of dispatched store instructions
system.switch_cpus0.iew.iewDispatchedInsts    350255601                       # Number of instructions dispatched to IQ
system.switch_cpus0.iew.iewExecLoadInsts     93714324                       # Number of load instructions executed
system.switch_cpus0.iew.iewExecSquashedInsts        42938                       # Number of squashed instructions skipped in execute
system.switch_cpus0.iew.iewExecutedInsts    352134867                       # Number of executed instructions
system.switch_cpus0.iew.iewIQFullEvents        583484                       # Number of times the IQ has become full, causing a stall
system.switch_cpus0.iew.iewIdleCycles               0                       # Number of cycles IEW is idle
system.switch_cpus0.iew.iewLSQFullEvents    376943983                       # Number of times the LSQ has become full, causing a stall
system.switch_cpus0.iew.iewSquashCycles         22762                       # Number of cycles IEW is squashing
system.switch_cpus0.iew.iewUnblockCycles    378583491                       # Number of cycles IEW is unblocking
system.switch_cpus0.iew.memOrderViolationEvents         2268                       # Number of memory order violations
system.switch_cpus0.iew.predictedNotTakenIncorrect         9231                       # Number of branches that were predicted not taken incorrectly
system.switch_cpus0.iew.predictedTakenIncorrect        12564                       # Number of branches that were predicted taken incorrectly
system.switch_cpus0.iew.wb_consumers        353557051                       # num instructions consuming a value
system.switch_cpus0.iew.wb_count            349991444                       # cumulative count of insts written-back
system.switch_cpus0.iew.wb_fanout            0.645388                       # average fanout of values written-back
system.switch_cpus0.iew.wb_producers        228181469                       # num instructions producing a value
system.switch_cpus0.iew.wb_rate              0.292083                       # insts written-back per cycle
system.switch_cpus0.iew.wb_sent             349998565                       # cumulative count of insts sent to commit
system.switch_cpus0.int_regfile_reads       384328021                       # number of integer regfile reads
system.switch_cpus0.int_regfile_writes      139901508                       # number of integer regfile writes
system.switch_cpus0.ipc                      0.208636                       # IPC: Instructions Per Cycle
system.switch_cpus0.ipc_total                0.208636                       # IPC: Total IPC of All Threads
system.switch_cpus0.iq.FU_type_0::No_OpClass         5800      0.00%      0.00% # Type of FU issued
system.switch_cpus0.iq.FU_type_0::IntAlu    136239583     38.68%     38.69% # Type of FU issued
system.switch_cpus0.iq.FU_type_0::IntMult       250649      0.07%     38.76% # Type of FU issued
system.switch_cpus0.iq.FU_type_0::IntDiv           14      0.00%     38.76% # Type of FU issued
system.switch_cpus0.iq.FU_type_0::FloatAdd      6295901      1.79%     40.55% # Type of FU issued
system.switch_cpus0.iq.FU_type_0::FloatCmp            0      0.00%     40.55% # Type of FU issued
system.switch_cpus0.iq.FU_type_0::FloatCvt            0      0.00%     40.55% # Type of FU issued
system.switch_cpus0.iq.FU_type_0::FloatMult            0      0.00%     40.55% # Type of FU issued
system.switch_cpus0.iq.FU_type_0::FloatMultAcc            0      0.00%     40.55% # Type of FU issued
system.switch_cpus0.iq.FU_type_0::FloatDiv            0      0.00%     40.55% # Type of FU issued
system.switch_cpus0.iq.FU_type_0::FloatMisc            0      0.00%     40.55% # Type of FU issued
system.switch_cpus0.iq.FU_type_0::FloatSqrt            0      0.00%     40.55% # Type of FU issued
system.switch_cpus0.iq.FU_type_0::SimdAdd          168      0.00%     40.55% # Type of FU issued
system.switch_cpus0.iq.FU_type_0::SimdAddAcc            0      0.00%     40.55% # Type of FU issued
system.switch_cpus0.iq.FU_type_0::SimdAlu      1147389      0.33%     40.87% # Type of FU issued
system.switch_cpus0.iq.FU_type_0::SimdCmp            0      0.00%     40.87% # Type of FU issued
system.switch_cpus0.iq.FU_type_0::SimdCvt         1694      0.00%     40.87% # Type of FU issued
system.switch_cpus0.iq.FU_type_0::SimdMisc      2863951      0.81%     41.68% # Type of FU issued
system.switch_cpus0.iq.FU_type_0::SimdMult            0      0.00%     41.68% # Type of FU issued
system.switch_cpus0.iq.FU_type_0::SimdMultAcc            0      0.00%     41.68% # Type of FU issued
system.switch_cpus0.iq.FU_type_0::SimdShift            0      0.00%     41.68% # Type of FU issued
system.switch_cpus0.iq.FU_type_0::SimdShiftAcc            0      0.00%     41.68% # Type of FU issued
system.switch_cpus0.iq.FU_type_0::SimdDiv            0      0.00%     41.68% # Type of FU issued
system.switch_cpus0.iq.FU_type_0::SimdSqrt            0      0.00%     41.68% # Type of FU issued
system.switch_cpus0.iq.FU_type_0::SimdFloatAdd     27045234      7.68%     49.36% # Type of FU issued
system.switch_cpus0.iq.FU_type_0::SimdFloatAlu            0      0.00%     49.36% # Type of FU issued
system.switch_cpus0.iq.FU_type_0::SimdFloatCmp       592713      0.17%     49.53% # Type of FU issued
system.switch_cpus0.iq.FU_type_0::SimdFloatCvt      2310034      0.66%     50.19% # Type of FU issued
system.switch_cpus0.iq.FU_type_0::SimdFloatDiv           13      0.00%     50.19% # Type of FU issued
system.switch_cpus0.iq.FU_type_0::SimdFloatMisc            0      0.00%     50.19% # Type of FU issued
system.switch_cpus0.iq.FU_type_0::SimdFloatMult     44923047     12.76%     62.94% # Type of FU issued
system.switch_cpus0.iq.FU_type_0::SimdFloatMultAcc            0      0.00%     62.94% # Type of FU issued
system.switch_cpus0.iq.FU_type_0::SimdFloatSqrt            0      0.00%     62.94% # Type of FU issued
system.switch_cpus0.iq.FU_type_0::SimdReduceAdd            0      0.00%     62.94% # Type of FU issued
system.switch_cpus0.iq.FU_type_0::SimdReduceAlu            0      0.00%     62.94% # Type of FU issued
system.switch_cpus0.iq.FU_type_0::SimdReduceCmp            0      0.00%     62.94% # Type of FU issued
system.switch_cpus0.iq.FU_type_0::SimdFloatReduceAdd            0      0.00%     62.94% # Type of FU issued
system.switch_cpus0.iq.FU_type_0::SimdFloatReduceCmp            0      0.00%     62.94% # Type of FU issued
system.switch_cpus0.iq.FU_type_0::SimdAes            0      0.00%     62.94% # Type of FU issued
system.switch_cpus0.iq.FU_type_0::SimdAesMix            0      0.00%     62.94% # Type of FU issued
system.switch_cpus0.iq.FU_type_0::SimdSha1Hash            0      0.00%     62.94% # Type of FU issued
system.switch_cpus0.iq.FU_type_0::SimdSha1Hash2            0      0.00%     62.94% # Type of FU issued
system.switch_cpus0.iq.FU_type_0::SimdSha256Hash            0      0.00%     62.94% # Type of FU issued
system.switch_cpus0.iq.FU_type_0::SimdSha256Hash2            0      0.00%     62.94% # Type of FU issued
system.switch_cpus0.iq.FU_type_0::SimdShaSigma2            0      0.00%     62.94% # Type of FU issued
system.switch_cpus0.iq.FU_type_0::SimdShaSigma3            0      0.00%     62.94% # Type of FU issued
system.switch_cpus0.iq.FU_type_0::SimdPredAlu            0      0.00%     62.94% # Type of FU issued
system.switch_cpus0.iq.FU_type_0::MemRead     40948612     11.63%     74.57% # Type of FU issued
system.switch_cpus0.iq.FU_type_0::MemWrite      6819376      1.94%     76.51% # Type of FU issued
system.switch_cpus0.iq.FU_type_0::FloatMemRead     52793672     14.99%     91.50% # Type of FU issued
system.switch_cpus0.iq.FU_type_0::FloatMemWrite     29939955      8.50%    100.00% # Type of FU issued
system.switch_cpus0.iq.FU_type_0::IprAccess            0      0.00%    100.00% # Type of FU issued
system.switch_cpus0.iq.FU_type_0::InstPrefetch            0      0.00%    100.00% # Type of FU issued
system.switch_cpus0.iq.FU_type_0::total     352177805                       # Type of FU issued
system.switch_cpus0.iq.fp_alu_accesses      193415988                       # Number of floating point alu accesses
system.switch_cpus0.iq.fp_inst_queue_reads    381033838                       # Number of floating instruction queue reads
system.switch_cpus0.iq.fp_inst_queue_wakeup_accesses    186769415                       # Number of floating instruction queue wakeup accesses
system.switch_cpus0.iq.fp_inst_queue_writes    187015715                       # Number of floating instruction queue writes
system.switch_cpus0.iq.fu_busy_cnt            9010754                       # FU busy when requested
system.switch_cpus0.iq.fu_busy_rate          0.025586                       # FU busy rate (busy events/executed inst)
system.switch_cpus0.iq.fu_full::No_OpClass            0      0.00%      0.00% # attempts to use FU when none available
system.switch_cpus0.iq.fu_full::IntAlu         210345      2.33%      2.33% # attempts to use FU when none available
system.switch_cpus0.iq.fu_full::IntMult             0      0.00%      2.33% # attempts to use FU when none available
system.switch_cpus0.iq.fu_full::IntDiv              0      0.00%      2.33% # attempts to use FU when none available
system.switch_cpus0.iq.fu_full::FloatAdd            0      0.00%      2.33% # attempts to use FU when none available
system.switch_cpus0.iq.fu_full::FloatCmp            0      0.00%      2.33% # attempts to use FU when none available
system.switch_cpus0.iq.fu_full::FloatCvt            0      0.00%      2.33% # attempts to use FU when none available
system.switch_cpus0.iq.fu_full::FloatMult            0      0.00%      2.33% # attempts to use FU when none available
system.switch_cpus0.iq.fu_full::FloatMultAcc            0      0.00%      2.33% # attempts to use FU when none available
system.switch_cpus0.iq.fu_full::FloatDiv            0      0.00%      2.33% # attempts to use FU when none available
system.switch_cpus0.iq.fu_full::FloatMisc            0      0.00%      2.33% # attempts to use FU when none available
system.switch_cpus0.iq.fu_full::FloatSqrt            0      0.00%      2.33% # attempts to use FU when none available
system.switch_cpus0.iq.fu_full::SimdAdd             0      0.00%      2.33% # attempts to use FU when none available
system.switch_cpus0.iq.fu_full::SimdAddAcc            0      0.00%      2.33% # attempts to use FU when none available
system.switch_cpus0.iq.fu_full::SimdAlu           181      0.00%      2.34% # attempts to use FU when none available
system.switch_cpus0.iq.fu_full::SimdCmp             0      0.00%      2.34% # attempts to use FU when none available
system.switch_cpus0.iq.fu_full::SimdCvt             8      0.00%      2.34% # attempts to use FU when none available
system.switch_cpus0.iq.fu_full::SimdMisc          147      0.00%      2.34% # attempts to use FU when none available
system.switch_cpus0.iq.fu_full::SimdMult            0      0.00%      2.34% # attempts to use FU when none available
system.switch_cpus0.iq.fu_full::SimdMultAcc            0      0.00%      2.34% # attempts to use FU when none available
system.switch_cpus0.iq.fu_full::SimdShift            0      0.00%      2.34% # attempts to use FU when none available
system.switch_cpus0.iq.fu_full::SimdShiftAcc            0      0.00%      2.34% # attempts to use FU when none available
system.switch_cpus0.iq.fu_full::SimdDiv             0      0.00%      2.34% # attempts to use FU when none available
system.switch_cpus0.iq.fu_full::SimdSqrt            0      0.00%      2.34% # attempts to use FU when none available
system.switch_cpus0.iq.fu_full::SimdFloatAdd       594296      6.60%      8.93% # attempts to use FU when none available
system.switch_cpus0.iq.fu_full::SimdFloatAlu            0      0.00%      8.93% # attempts to use FU when none available
system.switch_cpus0.iq.fu_full::SimdFloatCmp        30568      0.34%      9.27% # attempts to use FU when none available
system.switch_cpus0.iq.fu_full::SimdFloatCvt        13645      0.15%      9.42% # attempts to use FU when none available
system.switch_cpus0.iq.fu_full::SimdFloatDiv            0      0.00%      9.42% # attempts to use FU when none available
system.switch_cpus0.iq.fu_full::SimdFloatMisc            0      0.00%      9.42% # attempts to use FU when none available
system.switch_cpus0.iq.fu_full::SimdFloatMult      1468643     16.30%     25.72% # attempts to use FU when none available
system.switch_cpus0.iq.fu_full::SimdFloatMultAcc            0      0.00%     25.72% # attempts to use FU when none available
system.switch_cpus0.iq.fu_full::SimdFloatSqrt            0      0.00%     25.72% # attempts to use FU when none available
system.switch_cpus0.iq.fu_full::SimdReduceAdd            0      0.00%     25.72% # attempts to use FU when none available
system.switch_cpus0.iq.fu_full::SimdReduceAlu            0      0.00%     25.72% # attempts to use FU when none available
system.switch_cpus0.iq.fu_full::SimdReduceCmp            0      0.00%     25.72% # attempts to use FU when none available
system.switch_cpus0.iq.fu_full::SimdFloatReduceAdd            0      0.00%     25.72% # attempts to use FU when none available
system.switch_cpus0.iq.fu_full::SimdFloatReduceCmp            0      0.00%     25.72% # attempts to use FU when none available
system.switch_cpus0.iq.fu_full::SimdAes             0      0.00%     25.72% # attempts to use FU when none available
system.switch_cpus0.iq.fu_full::SimdAesMix            0      0.00%     25.72% # attempts to use FU when none available
system.switch_cpus0.iq.fu_full::SimdSha1Hash            0      0.00%     25.72% # attempts to use FU when none available
system.switch_cpus0.iq.fu_full::SimdSha1Hash2            0      0.00%     25.72% # attempts to use FU when none available
system.switch_cpus0.iq.fu_full::SimdSha256Hash            0      0.00%     25.72% # attempts to use FU when none available
system.switch_cpus0.iq.fu_full::SimdSha256Hash2            0      0.00%     25.72% # attempts to use FU when none available
system.switch_cpus0.iq.fu_full::SimdShaSigma2            0      0.00%     25.72% # attempts to use FU when none available
system.switch_cpus0.iq.fu_full::SimdShaSigma3            0      0.00%     25.72% # attempts to use FU when none available
system.switch_cpus0.iq.fu_full::SimdPredAlu            0      0.00%     25.72% # attempts to use FU when none available
system.switch_cpus0.iq.fu_full::MemRead       2903592     32.22%     57.95% # attempts to use FU when none available
system.switch_cpus0.iq.fu_full::MemWrite       111794      1.24%     59.19% # attempts to use FU when none available
system.switch_cpus0.iq.fu_full::FloatMemRead      3670610     40.74%     99.92% # attempts to use FU when none available
system.switch_cpus0.iq.fu_full::FloatMemWrite         6925      0.08%    100.00% # attempts to use FU when none available
system.switch_cpus0.iq.fu_full::IprAccess            0      0.00%    100.00% # attempts to use FU when none available
system.switch_cpus0.iq.fu_full::InstPrefetch            0      0.00%    100.00% # attempts to use FU when none available
system.switch_cpus0.iq.int_alu_accesses     167766771                       # Number of integer alu accesses
system.switch_cpus0.iq.int_inst_queue_reads   1530216435                       # Number of integer instruction queue reads
system.switch_cpus0.iq.int_inst_queue_wakeup_accesses    163222029                       # Number of integer instruction queue wakeup accesses
system.switch_cpus0.iq.int_inst_queue_writes    163740729                       # Number of integer instruction queue writes
system.switch_cpus0.iq.iqInstsAdded         350255580                       # Number of instructions added to the IQ (excludes non-spec)
system.switch_cpus0.iq.iqInstsIssued        352177805                       # Number of instructions issued
system.switch_cpus0.iq.iqNonSpecInstsAdded           21                       # Number of non-speculative instructions added to the IQ
system.switch_cpus0.iq.iqSquashedInstsExamined       498592                       # Number of squashed instructions iterated over during squash; mainly for profiling
system.switch_cpus0.iq.iqSquashedInstsIssued         9663                       # Number of squashed instructions issued
system.switch_cpus0.iq.iqSquashedNonSpecRemoved           21                       # Number of squashed non-spec instructions that were removed
system.switch_cpus0.iq.iqSquashedOperandsExamined       810459                       # Number of squashed operands that are examined and possibly removed from graph
system.switch_cpus0.iq.issued_per_cycle::samples   1197874246                       # Number of insts issued each cycle
system.switch_cpus0.iq.issued_per_cycle::mean     0.294002                       # Number of insts issued each cycle
system.switch_cpus0.iq.issued_per_cycle::stdev     1.101681                       # Number of insts issued each cycle
system.switch_cpus0.iq.issued_per_cycle::underflows            0      0.00%      0.00% # Number of insts issued each cycle
system.switch_cpus0.iq.issued_per_cycle::0   1085393693     90.61%     90.61% # Number of insts issued each cycle
system.switch_cpus0.iq.issued_per_cycle::1     32459795      2.71%     93.32% # Number of insts issued each cycle
system.switch_cpus0.iq.issued_per_cycle::2     20709322      1.73%     95.05% # Number of insts issued each cycle
system.switch_cpus0.iq.issued_per_cycle::3     15874754      1.33%     96.37% # Number of insts issued each cycle
system.switch_cpus0.iq.issued_per_cycle::4     15883588      1.33%     97.70% # Number of insts issued each cycle
system.switch_cpus0.iq.issued_per_cycle::5     11064650      0.92%     98.62% # Number of insts issued each cycle
system.switch_cpus0.iq.issued_per_cycle::6      7284771      0.61%     99.23% # Number of insts issued each cycle
system.switch_cpus0.iq.issued_per_cycle::7      5520508      0.46%     99.69% # Number of insts issued each cycle
system.switch_cpus0.iq.issued_per_cycle::8      3683165      0.31%    100.00% # Number of insts issued each cycle
system.switch_cpus0.iq.issued_per_cycle::overflows            0      0.00%    100.00% # Number of insts issued each cycle
system.switch_cpus0.iq.issued_per_cycle::min_value            0                       # Number of insts issued each cycle
system.switch_cpus0.iq.issued_per_cycle::max_value            8                       # Number of insts issued each cycle
system.switch_cpus0.iq.issued_per_cycle::total   1197874246                       # Number of insts issued each cycle
system.switch_cpus0.iq.rate                  0.293908                       # Inst issue rate
system.switch_cpus0.iq.vec_alu_accesses             0                       # Number of vector alu accesses
system.switch_cpus0.iq.vec_inst_queue_reads            0                       # Number of vector instruction queue reads
system.switch_cpus0.iq.vec_inst_queue_wakeup_accesses            0                       # Number of vector instruction queue wakeup accesses
system.switch_cpus0.iq.vec_inst_queue_writes            0                       # Number of vector instruction queue writes
system.switch_cpus0.memDep0.conflictingLoads      6665560                       # Number of conflicting loads.
system.switch_cpus0.memDep0.conflictingStores      1324545                       # Number of conflicting stores.
system.switch_cpus0.memDep0.insertedLoads     91697229                       # Number of loads inserted to the mem dependence unit.
system.switch_cpus0.memDep0.insertedStores     36803054                       # Number of stores inserted to the mem dependence unit.
system.switch_cpus0.misc_regfile_reads      179559119                       # number of misc regfile reads
system.switch_cpus0.misc_regfile_writes             1                       # number of misc regfile writes
system.switch_cpus0.numCycles              1198258823                       # number of cpu cycles simulated
system.switch_cpus0.numWorkItemsCompleted            0                       # number of work items this cpu completed
system.switch_cpus0.numWorkItemsStarted             0                       # number of work items this cpu started
system.switch_cpus0.timesIdled                   1242                       # Number of times that the entire CPU went into an idle state and unscheduled itself
system.switch_cpus1.cc_regfile_reads         71041775                       # number of cc regfile reads
system.switch_cpus1.cc_regfile_writes        51300207                       # number of cc regfile writes
system.switch_cpus1.committedInsts          249995803                       # Number of Instructions Simulated
system.switch_cpus1.committedOps            349750940                       # Number of Ops (including micro ops) Simulated
system.switch_cpus1.cpi                      4.793116                       # CPI: Cycles Per Instruction
system.switch_cpus1.cpi_total                4.793116                       # CPI: Total CPI of All Threads
system.switch_cpus1.fp_regfile_reads        296809289                       # number of floating regfile reads
system.switch_cpus1.fp_regfile_writes       151655727                       # number of floating regfile writes
system.switch_cpus1.idleCycles                 368821                       # Total number of cycles that the CPU has spent unscheduled due to idling
system.switch_cpus1.iew.branchMispredicts        21790                       # Number of branch mispredicts detected at execute
system.switch_cpus1.iew.exec_branches        19586853                       # Number of branches executed
system.switch_cpus1.iew.exec_nop                    0                       # number of nop insts executed
system.switch_cpus1.iew.exec_rate            0.293814                       # Inst execution rate
system.switch_cpus1.iew.exec_refs           130407137                       # number of memory reference insts executed
system.switch_cpus1.iew.exec_stores          36757443                       # Number of stores executed
system.switch_cpus1.iew.exec_swp                    0                       # number of swp insts executed
system.switch_cpus1.iew.iewBlockCycles      181085761                       # Number of cycles IEW is blocking
system.switch_cpus1.iew.iewDispLoadInsts     91695916                       # Number of dispatched load instructions
system.switch_cpus1.iew.iewDispNonSpecInsts            9                       # Number of dispatched non-speculative instructions
system.switch_cpus1.iew.iewDispSquashedInsts          385                       # Number of squashed instructions skipped by dispatch
system.switch_cpus1.iew.iewDispStoreInsts     36802057                       # Number of dispatched store instructions
system.switch_cpus1.iew.iewDispatchedInsts    350249398                       # Number of instructions dispatched to IQ
system.switch_cpus1.iew.iewExecLoadInsts     93649694                       # Number of load instructions executed
system.switch_cpus1.iew.iewExecSquashedInsts        42952                       # Number of squashed instructions skipped in execute
system.switch_cpus1.iew.iewExecutedInsts    352065642                       # Number of executed instructions
system.switch_cpus1.iew.iewIQFullEvents        593410                       # Number of times the IQ has become full, causing a stall
system.switch_cpus1.iew.iewIdleCycles               0                       # Number of cycles IEW is idle
system.switch_cpus1.iew.iewLSQFullEvents    374406674                       # Number of times the LSQ has become full, causing a stall
system.switch_cpus1.iew.iewSquashCycles         22775                       # Number of cycles IEW is squashing
system.switch_cpus1.iew.iewUnblockCycles    376079121                       # Number of cycles IEW is unblocking
system.switch_cpus1.iew.memOrderViolationEvents         2274                       # Number of memory order violations
system.switch_cpus1.iew.predictedNotTakenIncorrect         9231                       # Number of branches that were predicted not taken incorrectly
system.switch_cpus1.iew.predictedTakenIncorrect        12559                       # Number of branches that were predicted taken incorrectly
system.switch_cpus1.iew.wb_consumers        353494644                       # num instructions consuming a value
system.switch_cpus1.iew.wb_count            349985379                       # cumulative count of insts written-back
system.switch_cpus1.iew.wb_fanout            0.645418                       # average fanout of values written-back
system.switch_cpus1.iew.wb_producers        228151829                       # num instructions producing a value
system.switch_cpus1.iew.wb_rate              0.292078                       # insts written-back per cycle
system.switch_cpus1.iew.wb_sent             349992511                       # cumulative count of insts sent to commit
system.switch_cpus1.int_regfile_reads       384194152                       # number of integer regfile reads
system.switch_cpus1.int_regfile_writes      139898856                       # number of integer regfile writes
system.switch_cpus1.ipc                      0.208633                       # IPC: Instructions Per Cycle
system.switch_cpus1.ipc_total                0.208633                       # IPC: Total IPC of All Threads
system.switch_cpus1.iq.FU_type_0::No_OpClass         5826      0.00%      0.00% # Type of FU issued
system.switch_cpus1.iq.FU_type_0::IntAlu    136237040     38.69%     38.69% # Type of FU issued
system.switch_cpus1.iq.FU_type_0::IntMult       250658      0.07%     38.76% # Type of FU issued
system.switch_cpus1.iq.FU_type_0::IntDiv           14      0.00%     38.76% # Type of FU issued
system.switch_cpus1.iq.FU_type_0::FloatAdd      6295726      1.79%     40.55% # Type of FU issued
system.switch_cpus1.iq.FU_type_0::FloatCmp            0      0.00%     40.55% # Type of FU issued
system.switch_cpus1.iq.FU_type_0::FloatCvt            0      0.00%     40.55% # Type of FU issued
system.switch_cpus1.iq.FU_type_0::FloatMult            0      0.00%     40.55% # Type of FU issued
system.switch_cpus1.iq.FU_type_0::FloatMultAcc            0      0.00%     40.55% # Type of FU issued
system.switch_cpus1.iq.FU_type_0::FloatDiv            0      0.00%     40.55% # Type of FU issued
system.switch_cpus1.iq.FU_type_0::FloatMisc            0      0.00%     40.55% # Type of FU issued
system.switch_cpus1.iq.FU_type_0::FloatSqrt            0      0.00%     40.55% # Type of FU issued
system.switch_cpus1.iq.FU_type_0::SimdAdd          168      0.00%     40.55% # Type of FU issued
system.switch_cpus1.iq.FU_type_0::SimdAddAcc            0      0.00%     40.55% # Type of FU issued
system.switch_cpus1.iq.FU_type_0::SimdAlu      1147367      0.33%     40.88% # Type of FU issued
system.switch_cpus1.iq.FU_type_0::SimdCmp            0      0.00%     40.88% # Type of FU issued
system.switch_cpus1.iq.FU_type_0::SimdCvt         1698      0.00%     40.88% # Type of FU issued
system.switch_cpus1.iq.FU_type_0::SimdMisc      2863874      0.81%     41.69% # Type of FU issued
system.switch_cpus1.iq.FU_type_0::SimdMult            0      0.00%     41.69% # Type of FU issued
system.switch_cpus1.iq.FU_type_0::SimdMultAcc            0      0.00%     41.69% # Type of FU issued
system.switch_cpus1.iq.FU_type_0::SimdShift            0      0.00%     41.69% # Type of FU issued
system.switch_cpus1.iq.FU_type_0::SimdShiftAcc            0      0.00%     41.69% # Type of FU issued
system.switch_cpus1.iq.FU_type_0::SimdDiv            0      0.00%     41.69% # Type of FU issued
system.switch_cpus1.iq.FU_type_0::SimdSqrt            0      0.00%     41.69% # Type of FU issued
system.switch_cpus1.iq.FU_type_0::SimdFloatAdd     27044870      7.68%     49.37% # Type of FU issued
system.switch_cpus1.iq.FU_type_0::SimdFloatAlu            0      0.00%     49.37% # Type of FU issued
system.switch_cpus1.iq.FU_type_0::SimdFloatCmp       592711      0.17%     49.54% # Type of FU issued
system.switch_cpus1.iq.FU_type_0::SimdFloatCvt      2309984      0.66%     50.20% # Type of FU issued
system.switch_cpus1.iq.FU_type_0::SimdFloatDiv           13      0.00%     50.20% # Type of FU issued
system.switch_cpus1.iq.FU_type_0::SimdFloatMisc            0      0.00%     50.20% # Type of FU issued
system.switch_cpus1.iq.FU_type_0::SimdFloatMult     44922428     12.76%     62.96% # Type of FU issued
system.switch_cpus1.iq.FU_type_0::SimdFloatMultAcc            0      0.00%     62.96% # Type of FU issued
system.switch_cpus1.iq.FU_type_0::SimdFloatSqrt            0      0.00%     62.96% # Type of FU issued
system.switch_cpus1.iq.FU_type_0::SimdReduceAdd            0      0.00%     62.96% # Type of FU issued
system.switch_cpus1.iq.FU_type_0::SimdReduceAlu            0      0.00%     62.96% # Type of FU issued
system.switch_cpus1.iq.FU_type_0::SimdReduceCmp            0      0.00%     62.96% # Type of FU issued
system.switch_cpus1.iq.FU_type_0::SimdFloatReduceAdd            0      0.00%     62.96% # Type of FU issued
system.switch_cpus1.iq.FU_type_0::SimdFloatReduceCmp            0      0.00%     62.96% # Type of FU issued
system.switch_cpus1.iq.FU_type_0::SimdAes            0      0.00%     62.96% # Type of FU issued
system.switch_cpus1.iq.FU_type_0::SimdAesMix            0      0.00%     62.96% # Type of FU issued
system.switch_cpus1.iq.FU_type_0::SimdSha1Hash            0      0.00%     62.96% # Type of FU issued
system.switch_cpus1.iq.FU_type_0::SimdSha1Hash2            0      0.00%     62.96% # Type of FU issued
system.switch_cpus1.iq.FU_type_0::SimdSha256Hash            0      0.00%     62.96% # Type of FU issued
system.switch_cpus1.iq.FU_type_0::SimdSha256Hash2            0      0.00%     62.96% # Type of FU issued
system.switch_cpus1.iq.FU_type_0::SimdShaSigma2            0      0.00%     62.96% # Type of FU issued
system.switch_cpus1.iq.FU_type_0::SimdShaSigma3            0      0.00%     62.96% # Type of FU issued
system.switch_cpus1.iq.FU_type_0::SimdPredAlu            0      0.00%     62.96% # Type of FU issued
system.switch_cpus1.iq.FU_type_0::MemRead     40887352     11.61%     74.57% # Type of FU issued
system.switch_cpus1.iq.FU_type_0::MemWrite      6819063      1.94%     76.50% # Type of FU issued
system.switch_cpus1.iq.FU_type_0::FloatMemRead     52790356     14.99%     91.50% # Type of FU issued
system.switch_cpus1.iq.FU_type_0::FloatMemWrite     29939446      8.50%    100.00% # Type of FU issued
system.switch_cpus1.iq.FU_type_0::IprAccess            0      0.00%    100.00% # Type of FU issued
[...]
system.switch_cpus3.commit.numCommittedDist::0   1110701149     92.73%     92.73% # Number of insts commited each cycle
system.switch_cpus3.commit.numCommittedDist::1     24360676      2.03%     94.76% # Number of insts commited each cycle
system.switch_cpus3.commit.numCommittedDist::2     13415802      1.12%     95.88% # Number of insts commited each cycle
system.switch_cpus3.commit.numCommittedDist::3      8386685      0.70%     96.58% # Number of insts commited each cycle
system.switch_cpus3.commit.numCommittedDist::4      9323294      0.78%     97.36% # Number of insts commited each cycle
system.switch_cpus3.commit.numCommittedDist::5      2840611      0.24%     97.60% # Number of insts commited each cycle
system.switch_cpus3.commit.numCommittedDist::6      3476351      0.29%     97.89% # Number of insts commited each cycle
system.switch_cpus3.commit.numCommittedDist::7      1164046      0.10%     97.99% # Number of insts commited each cycle
system.switch_cpus3.commit.numCommittedDist::8     24111657      2.01%    100.00% # Number of insts commited each cycle
system.switch_cpus3.commit.numCommittedDist::overflows            0      0.00%    100.00% # Number of insts commited each cycle
system.switch_cpus3.commit.numCommittedDist::min_value            0                       # Number of insts commited each cycle
system.switch_cpus3.commit.numCommittedDist::max_value            8                       # Number of insts commited each cycle
system.switch_cpus3.commit.numCommittedDist::total   1197780271                       # Number of insts commited each cycle
system.switch_cpus3.commit.instsCommitted    249993937                       # Number of instructions committed
system.switch_cpus3.commit.opsCommitted     349748250                       # Number of ops (including micro ops) committed
system.switch_cpus3.commit.memRefs          128239632                       # Number of memory references committed
system.switch_cpus3.commit.loads             91492082                       # Number of loads committed
system.switch_cpus3.commit.amos                     0                       # Number of atomic instructions committed
system.switch_cpus3.commit.membars                  0                       # Number of memory barriers committed
system.switch_cpus3.commit.branches          19571091                       # Number of branches committed
system.switch_cpus3.commit.vector                   0                       # Number of committed Vector instructions.
system.switch_cpus3.commit.floating         186748297                       # Number of committed floating point instructions.
system.switch_cpus3.commit.integer          247699936                       # Number of committed integer instructions.
system.switch_cpus3.commit.functionCalls      2252831                       # Number of function calls committed.
system.switch_cpus3.commit.committedInstType_0::No_OpClass         4715      0.00%      0.00% # Class of committed instruction
system.switch_cpus3.commit.committedInstType_0::IntAlu    136078211     38.91%     38.91% # Class of committed instruction
system.switch_cpus3.commit.committedInstType_0::IntMult       249476      0.07%     38.98% # Class of committed instruction
system.switch_cpus3.commit.committedInstType_0::IntDiv           14      0.00%     38.98% # Class of committed instruction
system.switch_cpus3.commit.committedInstType_0::FloatAdd      6294962      1.80%     40.78% # Class of committed instruction
system.switch_cpus3.commit.committedInstType_0::FloatCmp            0      0.00%     40.78% # Class of committed instruction
system.switch_cpus3.commit.committedInstType_0::FloatCvt            0      0.00%     40.78% # Class of committed instruction
system.switch_cpus3.commit.committedInstType_0::FloatMult            0      0.00%     40.78% # Class of committed instruction
system.switch_cpus3.commit.committedInstType_0::FloatMultAcc            0      0.00%     40.78% # Class of committed instruction
system.switch_cpus3.commit.committedInstType_0::FloatDiv            0      0.00%     40.78% # Class of committed instruction
system.switch_cpus3.commit.committedInstType_0::FloatMisc            0      0.00%     40.78% # Class of committed instruction
system.switch_cpus3.commit.committedInstType_0::FloatSqrt            0      0.00%     40.78% # Class of committed instruction
system.switch_cpus3.commit.committedInstType_0::SimdAdd          162      0.00%     40.78% # Class of committed instruction
system.switch_cpus3.commit.committedInstType_0::SimdAddAcc            0      0.00%     40.78% # Class of committed instruction
system.switch_cpus3.commit.committedInstType_0::SimdAlu      1146934      0.33%     41.11% # Class of committed instruction
system.switch_cpus3.commit.committedInstType_0::SimdCmp            0      0.00%     41.11% # Class of committed instruction
system.switch_cpus3.commit.committedInstType_0::SimdCvt         1660      0.00%     41.11% # Class of committed instruction
system.switch_cpus3.commit.committedInstType_0::SimdMisc      2863629      0.82%     41.93% # Class of committed instruction
system.switch_cpus3.commit.committedInstType_0::SimdMult            0      0.00%     41.93% # Class of committed instruction
system.switch_cpus3.commit.committedInstType_0::SimdMultAcc            0      0.00%     41.93% # Class of committed instruction
system.switch_cpus3.commit.committedInstType_0::SimdShift            0      0.00%     41.93% # Class of committed instruction
system.switch_cpus3.commit.committedInstType_0::SimdShiftAcc            0      0.00%     41.93% # Class of committed instruction
system.switch_cpus3.commit.committedInstType_0::SimdDiv            0      0.00%     41.93% # Class of committed instruction
system.switch_cpus3.commit.committedInstType_0::SimdSqrt            0      0.00%     41.93% # Class of committed instruction
system.switch_cpus3.commit.committedInstType_0::SimdFloatAdd     27044453      7.73%     49.66% # Class of committed instruction
system.switch_cpus3.commit.committedInstType_0::SimdFloatAlu            0      0.00%     49.66% # Class of committed instruction
system.switch_cpus3.commit.committedInstType_0::SimdFloatCmp       592704      0.17%     49.83% # Class of committed instruction
system.switch_cpus3.commit.committedInstType_0::SimdFloatCvt      2309881      0.66%     50.49% # Class of committed instruction
system.switch_cpus3.commit.committedInstType_0::SimdFloatDiv           12      0.00%     50.49% # Class of committed instruction
system.switch_cpus3.commit.committedInstType_0::SimdFloatMisc            0      0.00%     50.49% # Class of committed instruction
system.switch_cpus3.commit.committedInstType_0::SimdFloatMult     44921805     12.84%     63.33% # Class of committed instruction
system.switch_cpus3.commit.committedInstType_0::SimdFloatMultAcc            0      0.00%     63.33% # Class of committed instruction
system.switch_cpus3.commit.committedInstType_0::SimdFloatSqrt            0      0.00%     63.33% # Class of committed instruction
system.switch_cpus3.commit.committedInstType_0::SimdReduceAdd            0      0.00%     63.33% # Class of committed instruction
system.switch_cpus3.commit.committedInstType_0::SimdReduceAlu            0      0.00%     63.33% # Class of committed instruction
system.switch_cpus3.commit.committedInstType_0::SimdReduceCmp            0      0.00%     63.33% # Class of committed instruction
system.switch_cpus3.commit.committedInstType_0::SimdFloatReduceAdd            0      0.00%     63.33% # Class of committed instruction
system.switch_cpus3.commit.committedInstType_0::SimdFloatReduceCmp            0      0.00%     63.33% # Class of committed instruction
system.switch_cpus3.commit.committedInstType_0::SimdAes            0      0.00%     63.33% # Class of committed instruction
system.switch_cpus3.commit.committedInstType_0::SimdAesMix            0      0.00%     63.33% # Class of committed instruction
system.switch_cpus3.commit.committedInstType_0::SimdSha1Hash            0      0.00%     63.33% # Class of committed instruction
system.switch_cpus3.commit.committedInstType_0::SimdSha1Hash2            0      0.00%     63.33% # Class of committed instruction
system.switch_cpus3.commit.committedInstType_0::SimdSha256Hash            0      0.00%     63.33% # Class of committed instruction
system.switch_cpus3.commit.committedInstType_0::SimdSha256Hash2            0      0.00%     63.33% # Class of committed instruction
system.switch_cpus3.commit.committedInstType_0::SimdShaSigma2            0      0.00%     63.33% # Class of committed instruction
system.switch_cpus3.commit.committedInstType_0::SimdShaSigma3            0      0.00%     63.33% # Class of committed instruction
system.switch_cpus3.commit.committedInstType_0::SimdPredAlu            0      0.00%     63.33% # Class of committed instruction
system.switch_cpus3.commit.committedInstType_0::MemRead     39559770     11.31%     74.64% # Class of committed instruction
system.switch_cpus3.commit.committedInstType_0::MemWrite      6809511      1.95%     76.59% # Class of committed instruction
system.switch_cpus3.commit.committedInstType_0::FloatMemRead     51932312     14.85%     91.44% # Class of committed instruction
system.switch_cpus3.commit.committedInstType_0::FloatMemWrite     29938039      8.56%    100.00% # Class of committed instruction
system.switch_cpus3.commit.committedInstType_0::IprAccess            0      0.00%    100.00% # Class of committed instruction
system.switch_cpus3.commit.committedInstType_0::InstPrefetch            0      0.00%    100.00% # Class of committed instruction
system.switch_cpus3.commit.committedInstType_0::total    349748250                       # Class of committed instruction
system.switch_cpus3.commit.commitEligibleSamples     24111657                       # number cycles where commit BW limit reached
system.switch_cpus3.decode.idleCycles         8573256                       # Number of cycles decode is idle
system.switch_cpus3.decode.blockedCycles   1142944251                       # Number of cycles decode is blocked
system.switch_cpus3.decode.runCycles         25410122                       # Number of cycles decode is running
system.switch_cpus3.decode.unblockCycles     20904585                       # Number of cycles decode is unblocking
system.switch_cpus3.decode.squashCycles         22753                       # Number of cycles decode is squashing
system.switch_cpus3.decode.branchResolved      6965615                       # Number of times decode resolved a  branch
system.switch_cpus3.decode.branchMispred         2142                       # Number of times decode detected a branch misprediction
system.switch_cpus3.decode.decodedInsts     350561228                       # Number of instructions handled by decode
system.switch_cpus3.decode.squashedInsts        10754                       # Number of squashed instructions handled by decode
system.switch_cpus3.dtb.rdAccesses           91612605                       # TLB accesses on read requests
system.switch_cpus3.dtb.wrAccesses           36757193                       # TLB accesses on write requests
system.switch_cpus3.dtb.rdMisses                55442                       # TLB misses on read requests
system.switch_cpus3.dtb.wrMisses                18826                       # TLB misses on write requests
system.switch_cpus3.dtb.walker.power_state.pwrStateResidencyTicks::UNDEFINED 16258433017608                       # Cumulative time (in ticks) in various power states
system.switch_cpus3.fetch.icacheStallCycles        73416                       # Number of cycles fetch is stalled on an Icache miss
system.switch_cpus3.fetch.insts             251086345                       # Number of instructions fetch has processed
system.switch_cpus3.fetch.branches           19662607                       # Number of branches that fetch encountered
system.switch_cpus3.fetch.predictedBranches     11495917                       # Number of branches that fetch has predicted taken
system.switch_cpus3.fetch.cycles           1197756680                       # Number of cycles fetch has run and was not squashing or blocked
system.switch_cpus3.fetch.squashCycles          49752                       # Number of cycles fetch has spent squashing
system.switch_cpus3.fetch.miscStallCycles            1                       # Number of cycles fetch has spent waiting on interrupts,or bad addresses, or out of MSHRs
system.switch_cpus3.fetch.pendingTrapStallCycles            1                       # Number of stall cycles due to pending traps
system.switch_cpus3.fetch.cacheLines         31000928                       # Number of cache lines fetched
system.switch_cpus3.fetch.icacheSquashes         1362                       # Number of outstanding Icache misses that were squashed
system.switch_cpus3.fetch.nisnDist::samples   1197854974                       # Number of instructions fetched each cycle (Total)
system.switch_cpus3.fetch.nisnDist::mean     0.293210                       # Number of instructions fetched each cycle (Total)
system.switch_cpus3.fetch.nisnDist::stdev     1.375020                       # Number of instructions fetched each cycle (Total)
system.switch_cpus3.fetch.nisnDist::underflows            0      0.00%      0.00% # Number of instructions fetched each cycle (Total)
system.switch_cpus3.fetch.nisnDist::0      1135344214     94.78%     94.78% # Number of instructions fetched each cycle (Total)
system.switch_cpus3.fetch.nisnDist::1         3914340      0.33%     95.11% # Number of instructions fetched each cycle (Total)
system.switch_cpus3.fetch.nisnDist::2         6422369      0.54%     95.64% # Number of instructions fetched each cycle (Total)
system.switch_cpus3.fetch.nisnDist::3         8152655      0.68%     96.32% # Number of instructions fetched each cycle (Total)
system.switch_cpus3.fetch.nisnDist::4         3530937      0.29%     96.62% # Number of instructions fetched each cycle (Total)
system.switch_cpus3.fetch.nisnDist::5         4614239      0.39%     97.00% # Number of instructions fetched each cycle (Total)
system.switch_cpus3.fetch.nisnDist::6         4911524      0.41%     97.41% # Number of instructions fetched each cycle (Total)
system.switch_cpus3.fetch.nisnDist::7         4376071      0.37%     97.78% # Number of instructions fetched each cycle (Total)
system.switch_cpus3.fetch.nisnDist::8        26588625      2.22%    100.00% # Number of instructions fetched each cycle (Total)
system.switch_cpus3.fetch.nisnDist::overflows            0      0.00%    100.00% # Number of instructions fetched each cycle (Total)
system.switch_cpus3.fetch.nisnDist::min_value            0                       # Number of instructions fetched each cycle (Total)
system.switch_cpus3.fetch.nisnDist::max_value            8                       # Number of instructions fetched each cycle (Total)
system.switch_cpus3.fetch.nisnDist::total   1197854974                       # Number of instructions fetched each cycle (Total)
system.switch_cpus3.fetch.branchRate         0.016409                       # Number of branch fetches per cycle
system.switch_cpus3.fetch.rate               0.209543                       # Number of inst fetches per cycle
system.switch_cpus3.itb.rdAccesses                  0                       # TLB accesses on read requests
system.switch_cpus3.itb.wrAccesses           31000929                       # TLB accesses on write requests
system.switch_cpus3.itb.rdMisses                    0                       # TLB misses on read requests
system.switch_cpus3.itb.wrMisses                  112                       # TLB misses on write requests
system.switch_cpus3.itb.walker.power_state.pwrStateResidencyTicks::UNDEFINED 16258433017608                       # Cumulative time (in ticks) in various power states
system.switch_cpus3.lsq0.forwLoads           16412006                       # Number of loads that had data forwarded from stores
system.switch_cpus3.lsq0.squashedLoads         203359                       # Number of loads squashed
system.switch_cpus3.lsq0.ignoredResponses          106                       # Number of memory responses ignored because the instruction is squashed
system.switch_cpus3.lsq0.memOrderViolation         2269                       # Number of memory ordering violations
system.switch_cpus3.lsq0.squashedStores         54418                       # Number of stores squashed
system.switch_cpus3.lsq0.rescheduledLoads           15                       # Number of loads that were rescheduled
system.switch_cpus3.lsq0.blockedByCache        672520                       # Number of times an access to memory failed due to the cache being blocked
system.switch_cpus3.power_state.pwrStateResidencyTicks::OFF 399020198382                       # Cumulative time (in ticks) in various power states
system.switch_cpus3.rename.squashCycles         22753                       # Number of cycles rename is squashing
system.switch_cpus3.rename.idleCycles        15966865                       # Number of cycles rename is idle
system.switch_cpus3.rename.blockCycles      600912677                       # Number of cycles rename is blocking
system.switch_cpus3.rename.serializeStallCycles            0                       # count of cycles rename stalledfor serializing inst
system.switch_cpus3.rename.runCycles         37847671                       # Number of cycles rename is running
system.switch_cpus3.rename.unblockCycles    543105001                       # Number of cycles rename is unblocking
system.switch_cpus3.rename.renamedInsts     350391597                       # Number of instructions processed by rename
system.switch_cpus3.rename.ROBFullEvents       585519                       # Number of times rename has blocked due to ROB full
system.switch_cpus3.rename.IQFullEvents       8492942                       # Number of times rename has blocked due to IQ full
system.switch_cpus3.rename.LQFullEvents      59104701                       # Number of times rename has blocked due to LQ full
system.switch_cpus3.rename.SQFullEvents     471846645                       # Number of times rename has blocked due to SQ full
system.switch_cpus3.rename.renamedOperands    343249055                       # Number of destination operands rename has renamed
system.switch_cpus3.rename.lookups          926536460                       # Number of register rename lookups that rename has made
system.switch_cpus3.rename.intLookups       380797377                       # Number of integer rename lookups
system.switch_cpus3.rename.fpLookups        296876163                       # Number of floating rename lookups
system.switch_cpus3.rename.committedMaps    342577922                       # Number of HB maps that are committed
system.switch_cpus3.rename.undoneMaps          671062                       # Number of HB maps that are undone due to squashing
system.switch_cpus3.rename.serializing              0                       # count of serializing insts renamed
system.switch_cpus3.rename.tempSerializing            0                       # count of temporary serializing insts renamed
system.switch_cpus3.rename.skidInsts        112765115                       # count of insts added to the skid buffer
system.switch_cpus3.rob.reads              1523931132                       # The number of ROB reads
system.switch_cpus3.rob.writes              700599975                       # The number of ROB writes
system.switch_cpus3.thread0.numInsts        249993937                       # Number of Instructions committed
system.switch_cpus3.thread0.numOps          349748250                       # Number of Ops committed
system.switch_cpus3.thread0.numMemRefs              0                       # Number of Memory References
system.voltage_domain.voltage                       1                       # Voltage in Volts

---------- End Simulation Statistics   ----------
