
---------- Begin Simulation Statistics ----------
final_tick                               13754202795234                       # Number of ticks from beginning of simulation (restored from checkpoints and never reset)
host_inst_rate                                 185742                       # Simulator instruction rate (inst/s)
host_mem_usage                               17501468                       # Number of bytes of host memory used
host_op_rate                                   301991                       # Simulator op (including micro ops) rate (op/s)
host_seconds                                  1886.81                       # Real time elapsed on the host
host_tick_rate                               18629473                       # Simulator tick rate (ticks/s)
sim_freq                                 1000000000000                       # Frequency of simulated ticks
sim_insts                                   350459363                       # Number of instructions simulated
sim_ops                                     569798149                       # Number of ops (including micro ops) simulated
sim_seconds                                  0.035150                       # Number of seconds simulated
sim_ticks                                 35150199948                       # Number of ticks simulated
system.cpu0.Branches                                4                       # Number of branches fetched
system.cpu0.committedInsts                         11                       # Number of instructions committed
system.cpu0.committedOps                           27                       # Number of ops (including micro ops) committed
system.cpu0.idle_fraction                           0                       # Percentage of idle cycles
system.cpu0.l2bus.snoop_filter.hit_multi_requests         2511                       # Number of requests hitting in the snoop filter with multiple (>1) holders of the requested data.
system.cpu0.l2bus.snoop_filter.hit_multi_snoops           29                       # Number of snoops hitting in the snoop filter with multiple (>1) holders of the requested data.
system.cpu0.l2bus.snoop_filter.hit_single_requests       853660                       # Number of requests hitting in the snoop filter with a single holder of the requested data.
system.cpu0.l2bus.snoop_filter.hit_single_snoops        12756                       # Number of snoops hitting in the snoop filter with a single holder of the requested data.
system.cpu0.l2bus.snoop_filter.tot_requests      1683084                       # Total number of requests made to the snoop filter.
system.cpu0.l2bus.snoop_filter.tot_snoops        12785                       # Total number of snoops made to the snoop filter.
system.cpu0.mmucache.mmubus.snoop_filter.hit_multi_requests            0                       # Number of requests hitting in the snoop filter with multiple (>1) holders of the requested data.
system.cpu0.mmucache.mmubus.snoop_filter.hit_multi_snoops            0                       # Number of snoops hitting in the snoop filter with multiple (>1) holders of the requested data.
system.cpu0.mmucache.mmubus.snoop_filter.hit_single_requests            0                       # Number of requests hitting in the snoop filter with a single holder of the requested data.
system.cpu0.mmucache.mmubus.snoop_filter.hit_single_snoops            0                       # Number of snoops hitting in the snoop filter with a single holder of the requested data.
system.cpu0.mmucache.mmubus.snoop_filter.tot_requests            0                       # Total number of requests made to the snoop filter.
system.cpu0.mmucache.mmubus.snoop_filter.tot_snoops            0                       # Total number of snoops made to the snoop filter.
system.cpu0.not_idle_fraction                       1                       # Percentage of non-idle cycles
system.cpu0.numCycles                              31                       # number of cpu cycles simulated
system.cpu0.numWorkItemsCompleted                   0                       # number of work items this cpu completed
system.cpu0.numWorkItemsStarted                     0                       # number of work items this cpu started
system.cpu0.num_busy_cycles                        31                       # Number of busy cycles
system.cpu0.num_cc_register_reads                  21                       # number of times the CC registers were read
system.cpu0.num_cc_register_writes                 10                       # number of times the CC registers were written
system.cpu0.num_conditional_control_insts            4                       # number of instructions that are conditional controls
system.cpu0.num_fp_alu_accesses                     0                       # Number of float alu accesses
system.cpu0.num_fp_insts                            0                       # number of float instructions
system.cpu0.num_fp_register_reads                   0                       # number of times the floating registers were read
system.cpu0.num_fp_register_writes                  0                       # number of times the floating registers were written
system.cpu0.num_func_calls                          0                       # number of times a function call or return occured
system.cpu0.num_idle_cycles                         0                       # Number of idle cycles
system.cpu0.num_int_alu_accesses                   27                       # Number of integer alu accesses
system.cpu0.num_int_insts                          27                       # number of integer instructions
system.cpu0.num_int_register_reads                 49                       # number of times the integer registers were read
system.cpu0.num_int_register_writes                23                       # number of times the integer registers were written
system.cpu0.num_load_insts                          5                       # Number of load instructions
system.cpu0.num_mem_refs                            5                       # number of memory refs
system.cpu0.num_store_insts                         0                       # Number of store instructions
system.cpu0.num_vec_alu_accesses                    0                       # Number of vector alu accesses
system.cpu0.num_vec_insts                           0                       # number of vector instructions
system.cpu0.num_vec_register_reads                  0                       # number of times the vector registers were read
system.cpu0.num_vec_register_writes                 0                       # number of times the vector registers were written
system.cpu0.op_class::No_OpClass                    0      0.00%      0.00% # Class of executed instruction
system.cpu0.op_class::IntAlu                       22     81.48%     81.48% # Class of executed instruction
system.cpu0.op_class::IntMult                       0      0.00%     81.48% # Class of executed instruction
system.cpu0.op_class::IntDiv                        0      0.00%     81.48% # Class of executed instruction
system.cpu0.op_class::FloatAdd                      0      0.00%     81.48% # Class of executed instruction
system.cpu0.op_class::FloatCmp                      0      0.00%     81.48% # Class of executed instruction
system.cpu0.op_class::FloatCvt                      0      0.00%     81.48% # Class of executed instruction
system.cpu0.op_class::FloatMult                     0      0.00%     81.48% # Class of executed instruction
system.cpu0.op_class::FloatMultAcc                  0      0.00%     81.48% # Class of executed instruction
system.cpu0.op_class::FloatDiv                      0      0.00%     81.48% # Class of executed instruction
system.cpu0.op_class::FloatMisc                     0      0.00%     81.48% # Class of executed instruction
system.cpu0.op_class::FloatSqrt                     0      0.00%     81.48% # Class of executed instruction
system.cpu0.op_class::SimdAdd                       0      0.00%     81.48% # Class of executed instruction
system.cpu0.op_class::SimdAddAcc                    0      0.00%     81.48% # Class of executed instruction
system.cpu0.op_class::SimdAlu                       0      0.00%     81.48% # Class of executed instruction
system.cpu0.op_class::SimdCmp                       0      0.00%     81.48% # Class of executed instruction
system.cpu0.op_class::SimdCvt                       0      0.00%     81.48% # Class of executed instruction
system.cpu0.op_class::SimdMisc                      0      0.00%     81.48% # Class of executed instruction
system.cpu0.op_class::SimdMult                      0      0.00%     81.48% # Class of executed instruction
system.cpu0.op_class::SimdMultAcc                   0      0.00%     81.48% # Class of executed instruction
system.cpu0.op_class::SimdShift                     0      0.00%     81.48% # Class of executed instruction
system.cpu0.op_class::SimdShiftAcc                  0      0.00%     81.48% # Class of executed instruction
system.cpu0.op_class::SimdDiv                       0      0.00%     81.48% # Class of executed instruction
system.cpu0.op_class::SimdSqrt                      0      0.00%     81.48% # Class of executed instruction
system.cpu0.op_class::SimdFloatAdd                  0      0.00%     81.48% # Class of executed instruction
system.cpu0.op_class::SimdFloatAlu                  0      0.00%     81.48% # Class of executed instruction
system.cpu0.op_class::SimdFloatCmp                  0      0.00%     81.48% # Class of executed instruction
system.cpu0.op_class::SimdFloatCvt                  0      0.00%     81.48% # Class of executed instruction
system.cpu0.op_class::SimdFloatDiv                  0      0.00%     81.48% # Class of executed instruction
system.cpu0.op_class::SimdFloatMisc                 0      0.00%     81.48% # Class of executed instruction
system.cpu0.op_class::SimdFloatMult                 0      0.00%     81.48% # Class of executed instruction
system.cpu0.op_class::SimdFloatMultAcc              0      0.00%     81.48% # Class of executed instruction
system.cpu0.op_class::SimdFloatSqrt                 0      0.00%     81.48% # Class of executed instruction
system.cpu0.op_class::SimdReduceAdd                 0      0.00%     81.48% # Class of executed instruction
system.cpu0.op_class::SimdReduceAlu                 0      0.00%     81.48% # Class of executed instruction
system.cpu0.op_class::SimdReduceCmp                 0      0.00%     81.48% # Class of executed instruction
system.cpu0.op_class::SimdFloatReduceAdd            0      0.00%     81.48% # Class of executed instruction
system.cpu0.op_class::SimdFloatReduceCmp            0      0.00%     81.48% # Class of executed instruction
system.cpu0.op_class::SimdAes                       0      0.00%     81.48% # Class of executed instruction
system.cpu0.op_class::SimdAesMix                    0      0.00%     81.48% # Class of executed instruction
system.cpu0.op_class::SimdSha1Hash                  0      0.00%     81.48% # Class of executed instruction
system.cpu0.op_class::SimdSha1Hash2                 0      0.00%     81.48% # Class of executed instruction
system.cpu0.op_class::SimdSha256Hash                0      0.00%     81.48% # Class of executed instruction
system.cpu0.op_class::SimdSha256Hash2               0      0.00%     81.48% # Class of executed instruction
system.cpu0.op_class::SimdShaSigma2                 0      0.00%     81.48% # Class of executed instruction
system.cpu0.op_class::SimdShaSigma3                 0      0.00%     81.48% # Class of executed instruction
system.cpu0.op_class::SimdPredAlu                   0      0.00%     81.48% # Class of executed instruction
system.cpu0.op_class::MemRead                       5     18.52%    100.00% # Class of executed instruction
system.cpu0.op_class::MemWrite                      0      0.00%    100.00% # Class of executed instruction
system.cpu0.op_class::FloatMemRead                  0      0.00%    100.00% # Class of executed instruction
system.cpu0.op_class::FloatMemWrite                 0      0.00%    100.00% # Class of executed instruction
system.cpu0.op_class::IprAccess                     0      0.00%    100.00% # Class of executed instruction
system.cpu0.op_class::InstPrefetch                  0      0.00%    100.00% # Class of executed instruction
system.cpu0.op_class::total                        27                       # Class of executed instruction
system.cpu0.workload.numSyscalls                    2                       # Number of system calls
system.cpu1.committedInsts                         15                       # Number of instructions committed
system.cpu1.committedOps                           23                       # Number of ops (including micro ops) committed
system.cpu1.idle_fraction                           0                       # Percentage of idle cycles
system.cpu1.l2bus.snoop_filter.hit_multi_requests            3                       # Number of requests hitting in the snoop filter with multiple (>1) holders of the requested data.
system.cpu1.l2bus.snoop_filter.hit_multi_snoops            0                       # Number of snoops hitting in the snoop filter with multiple (>1) holders of the requested data.
system.cpu1.l2bus.snoop_filter.hit_single_requests      2529393                       # Number of requests hitting in the snoop filter with a single holder of the requested data.
system.cpu1.l2bus.snoop_filter.hit_single_snoops          216                       # Number of snoops hitting in the snoop filter with a single holder of the requested data.
system.cpu1.l2bus.snoop_filter.tot_requests      5059492                       # Total number of requests made to the snoop filter.
system.cpu1.l2bus.snoop_filter.tot_snoops          216                       # Total number of snoops made to the snoop filter.
system.cpu1.mmucache.mmubus.snoop_filter.hit_multi_requests            0                       # Number of requests hitting in the snoop filter with multiple (>1) holders of the requested data.
system.cpu1.mmucache.mmubus.snoop_filter.hit_multi_snoops            0                       # Number of snoops hitting in the snoop filter with multiple (>1) holders of the requested data.
system.cpu1.mmucache.mmubus.snoop_filter.hit_single_requests            0                       # Number of requests hitting in the snoop filter with a single holder of the requested data.
system.cpu1.mmucache.mmubus.snoop_filter.hit_single_snoops            0                       # Number of snoops hitting in the snoop filter with a single holder of the requested data.
system.cpu1.mmucache.mmubus.snoop_filter.tot_requests            0                       # Total number of requests made to the snoop filter.
system.cpu1.mmucache.mmubus.snoop_filter.tot_snoops            0                       # Total number of snoops made to the snoop filter.
system.cpu1.not_idle_fraction                       1                       # Percentage of non-idle cycles
system.cpu1.numCycles                              31                       # number of cpu cycles simulated
system.cpu1.numWorkItemsCompleted                   0                       # number of work items this cpu completed
system.cpu1.numWorkItemsStarted                     0                       # number of work items this cpu started
system.cpu1.num_busy_cycles                        31                       # Number of busy cycles
system.cpu1.num_cc_register_writes                  2                       # number of times the CC registers were written
system.cpu1.num_conditional_control_insts            0                       # number of instructions that are conditional controls
system.cpu1.num_fp_alu_accesses                    15                       # Number of float alu accesses
system.cpu1.num_fp_insts                           15                       # number of float instructions
system.cpu1.num_fp_register_reads                  33                       # number of times the floating registers were read
system.cpu1.num_fp_register_writes                 15                       # number of times the floating registers were written
system.cpu1.num_func_calls                          0                       # number of times a function call or return occured
system.cpu1.num_idle_cycles                         0                       # Number of idle cycles
system.cpu1.num_int_alu_accesses                   12                       # Number of integer alu accesses
system.cpu1.num_int_insts                          12                       # number of integer instructions
system.cpu1.num_int_register_reads                 21                       # number of times the integer registers were read
system.cpu1.num_int_register_writes                 8                       # number of times the integer registers were written
system.cpu1.num_load_insts                          3                       # Number of load instructions
system.cpu1.num_mem_refs                            3                       # number of memory refs
system.cpu1.num_store_insts                         0                       # Number of store instructions
system.cpu1.num_vec_alu_accesses                    0                       # Number of vector alu accesses
system.cpu1.num_vec_insts                           0                       # number of vector instructions
system.cpu1.num_vec_register_reads                  0                       # number of times the vector registers were read
system.cpu1.num_vec_register_writes                 0                       # number of times the vector registers were written
system.cpu1.op_class::No_OpClass                    0      0.00%      0.00% # Class of executed instruction
system.cpu1.op_class::IntAlu                        5     21.74%     21.74% # Class of executed instruction
system.cpu1.op_class::IntMult                       0      0.00%     21.74% # Class of executed instruction
system.cpu1.op_class::IntDiv                        0      0.00%     21.74% # Class of executed instruction
system.cpu1.op_class::FloatAdd                      0      0.00%     21.74% # Class of executed instruction
system.cpu1.op_class::FloatCmp                      0      0.00%     21.74% # Class of executed instruction
system.cpu1.op_class::FloatCvt                      0      0.00%     21.74% # Class of executed instruction
system.cpu1.op_class::FloatMult                     0      0.00%     21.74% # Class of executed instruction
system.cpu1.op_class::FloatMultAcc                  0      0.00%     21.74% # Class of executed instruction
system.cpu1.op_class::FloatDiv                      0      0.00%     21.74% # Class of executed instruction
system.cpu1.op_class::FloatMisc                     0      0.00%     21.74% # Class of executed instruction
system.cpu1.op_class::FloatSqrt                     0      0.00%     21.74% # Class of executed instruction
system.cpu1.op_class::SimdAdd                       0      0.00%     21.74% # Class of executed instruction
system.cpu1.op_class::SimdAddAcc                    0      0.00%     21.74% # Class of executed instruction
system.cpu1.op_class::SimdAlu                       0      0.00%     21.74% # Class of executed instruction
system.cpu1.op_class::SimdCmp                       0      0.00%     21.74% # Class of executed instruction
system.cpu1.op_class::SimdCvt                       0      0.00%     21.74% # Class of executed instruction
system.cpu1.op_class::SimdMisc                      4     17.39%     39.13% # Class of executed instruction
system.cpu1.op_class::SimdMult                      0      0.00%     39.13% # Class of executed instruction
system.cpu1.op_class::SimdMultAcc                   0      0.00%     39.13% # Class of executed instruction
system.cpu1.op_class::SimdShift                     0      0.00%     39.13% # Class of executed instruction
system.cpu1.op_class::SimdShiftAcc                  0      0.00%     39.13% # Class of executed instruction
system.cpu1.op_class::SimdDiv                       0      0.00%     39.13% # Class of executed instruction
system.cpu1.op_class::SimdSqrt                      0      0.00%     39.13% # Class of executed instruction
system.cpu1.op_class::SimdFloatAdd                  3     13.04%     52.17% # Class of executed instruction
system.cpu1.op_class::SimdFloatAlu                  0      0.00%     52.17% # Class of executed instruction
system.cpu1.op_class::SimdFloatCmp                  0      0.00%     52.17% # Class of executed instruction
system.cpu1.op_class::SimdFloatCvt                  4     17.39%     69.57% # Class of executed instruction
system.cpu1.op_class::SimdFloatDiv                  0      0.00%     69.57% # Class of executed instruction
system.cpu1.op_class::SimdFloatMisc                 0      0.00%     69.57% # Class of executed instruction
system.cpu1.op_class::SimdFloatMult                 4     17.39%     86.96% # Class of executed instruction
system.cpu1.op_class::SimdFloatMultAcc              0      0.00%     86.96% # Class of executed instruction
system.cpu1.op_class::SimdFloatSqrt                 0      0.00%     86.96% # Class of executed instruction
system.cpu1.op_class::SimdReduceAdd                 0      0.00%     86.96% # Class of executed instruction
system.cpu1.op_class::SimdReduceAlu                 0      0.00%     86.96% # Class of executed instruction
system.cpu1.op_class::SimdReduceCmp                 0      0.00%     86.96% # Class of executed instruction
system.cpu1.op_class::SimdFloatReduceAdd            0      0.00%     86.96% # Class of executed instruction
system.cpu1.op_class::SimdFloatReduceCmp            0      0.00%     86.96% # Class of executed instruction
system.cpu1.op_class::SimdAes                       0      0.00%     86.96% # Class of executed instruction
system.cpu1.op_class::SimdAesMix                    0      0.00%     86.96% # Class of executed instruction
system.cpu1.op_class::SimdSha1Hash                  0      0.00%     86.96% # Class of executed instruction
system.cpu1.op_class::SimdSha1Hash2                 0      0.00%     86.96% # Class of executed instruction
system.cpu1.op_class::SimdSha256Hash                0      0.00%     86.96% # Class of executed instruction
system.cpu1.op_class::SimdSha256Hash2               0      0.00%     86.96% # Class of executed instruction
system.cpu1.op_class::SimdShaSigma2                 0      0.00%     86.96% # Class of executed instruction
system.cpu1.op_class::SimdShaSigma3                 0      0.00%     86.96% # Class of executed instruction
system.cpu1.op_class::SimdPredAlu                   0      0.00%     86.96% # Class of executed instruction
system.cpu1.op_class::MemRead                       3     13.04%    100.00% # Class of executed instruction
system.cpu1.op_class::MemWrite                      0      0.00%    100.00% # Class of executed instruction
system.cpu1.op_class::FloatMemRead                  0      0.00%    100.00% # Class of executed instruction
system.cpu1.op_class::FloatMemWrite                 0      0.00%    100.00% # Class of executed instruction
system.cpu1.op_class::IprAccess                     0      0.00%    100.00% # Class of executed instruction
system.cpu1.op_class::InstPrefetch                  0      0.00%    100.00% # Class of executed instruction
system.cpu1.op_class::total                        23                       # Class of executed instruction
system.cpu1.workload.numSyscalls                    0                       # Number of system calls
system.cpu2.committedInsts                         19                       # Number of instructions committed
system.cpu2.committedOps                           20                       # Number of ops (including micro ops) committed
system.cpu2.idle_fraction                           0                       # Percentage of idle cycles
system.cpu2.l2bus.snoop_filter.hit_multi_requests            0                       # Number of requests hitting in the snoop filter with multiple (>1) holders of the requested data.
system.cpu2.l2bus.snoop_filter.hit_multi_snoops            0                       # Number of snoops hitting in the snoop filter with multiple (>1) holders of the requested data.
system.cpu2.l2bus.snoop_filter.hit_single_requests      1751132                       # Number of requests hitting in the snoop filter with a single holder of the requested data.
system.cpu2.l2bus.snoop_filter.hit_single_snoops          171                       # Number of snoops hitting in the snoop filter with a single holder of the requested data.
system.cpu2.l2bus.snoop_filter.tot_requests      3502843                       # Total number of requests made to the snoop filter.
system.cpu2.l2bus.snoop_filter.tot_snoops          171                       # Total number of snoops made to the snoop filter.
system.cpu2.mmucache.mmubus.snoop_filter.hit_multi_requests            0                       # Number of requests hitting in the snoop filter with multiple (>1) holders of the requested data.
system.cpu2.mmucache.mmubus.snoop_filter.hit_multi_snoops            0                       # Number of snoops hitting in the snoop filter with multiple (>1) holders of the requested data.
system.cpu2.mmucache.mmubus.snoop_filter.hit_single_requests            0                       # Number of requests hitting in the snoop filter with a single holder of the requested data.
system.cpu2.mmucache.mmubus.snoop_filter.hit_single_snoops            0                       # Number of snoops hitting in the snoop filter with a single holder of the requested data.
system.cpu2.mmucache.mmubus.snoop_filter.tot_requests            0                       # Total number of requests made to the snoop filter.
system.cpu2.mmucache.mmubus.snoop_filter.tot_snoops            0                       # Total number of snoops made to the snoop filter.
system.cpu2.not_idle_fraction                       1                       # Percentage of non-idle cycles
system.cpu2.numCycles                              30                       # number of cpu cycles simulated
system.cpu2.numWorkItemsCompleted                   0                       # number of work items this cpu completed
system.cpu2.numWorkItemsStarted                     0                       # number of work items this cpu started
system.cpu2.num_busy_cycles                        30                       # Number of busy cycles
system.cpu2.num_conditional_control_insts            0                       # number of instructions that are conditional controls
system.cpu2.num_fp_alu_accesses                    20                       # Number of float alu accesses
system.cpu2.num_fp_insts                           20                       # number of float instructions
system.cpu2.num_fp_register_reads                  36                       # number of times the floating registers were read
system.cpu2.num_fp_register_writes                 19                       # number of times the floating registers were written
system.cpu2.num_func_calls                          0                       # number of times a function call or return occured
system.cpu2.num_idle_cycles                         0                       # Number of idle cycles
system.cpu2.num_int_alu_accesses                    8                       # Number of integer alu accesses
system.cpu2.num_int_insts                           8                       # number of integer instructions
system.cpu2.num_int_register_reads                 24                       # number of times the integer registers were read
system.cpu2.num_int_register_writes                 0                       # number of times the integer registers were written
system.cpu2.num_load_insts                          7                       # Number of load instructions
system.cpu2.num_mem_refs                            8                       # number of memory refs
system.cpu2.num_store_insts                         1                       # Number of store instructions
system.cpu2.num_vec_alu_accesses                    0                       # Number of vector alu accesses
system.cpu2.num_vec_insts                           0                       # number of vector instructions
system.cpu2.num_vec_register_reads                  0                       # number of times the vector registers were read
system.cpu2.num_vec_register_writes                 0                       # number of times the vector registers were written
system.cpu2.op_class::No_OpClass                    0      0.00%      0.00% # Class of executed instruction
system.cpu2.op_class::IntAlu                        1      5.00%      5.00% # Class of executed instruction
system.cpu2.op_class::IntMult                       0      0.00%      5.00% # Class of executed instruction
system.cpu2.op_class::IntDiv                        0      0.00%      5.00% # Class of executed instruction
system.cpu2.op_class::FloatAdd                      0      0.00%      5.00% # Class of executed instruction
system.cpu2.op_class::FloatCmp                      0      0.00%      5.00% # Class of executed instruction
system.cpu2.op_class::FloatCvt                      0      0.00%      5.00% # Class of executed instruction
system.cpu2.op_class::FloatMult                     0      0.00%      5.00% # Class of executed instruction
system.cpu2.op_class::FloatMultAcc                  0      0.00%      5.00% # Class of executed instruction
system.cpu2.op_class::FloatDiv                      0      0.00%      5.00% # Class of executed instruction
system.cpu2.op_class::FloatMisc                     0      0.00%      5.00% # Class of executed instruction
system.cpu2.op_class::FloatSqrt                     0      0.00%      5.00% # Class of executed instruction
system.cpu2.op_class::SimdAdd                       0      0.00%      5.00% # Class of executed instruction
system.cpu2.op_class::SimdAddAcc                    0      0.00%      5.00% # Class of executed instruction
system.cpu2.op_class::SimdAlu                       0      0.00%      5.00% # Class of executed instruction
system.cpu2.op_class::SimdCmp                       0      0.00%      5.00% # Class of executed instruction
system.cpu2.op_class::SimdCvt                       0      0.00%      5.00% # Class of executed instruction
system.cpu2.op_class::SimdMisc                      0      0.00%      5.00% # Class of executed instruction
system.cpu2.op_class::SimdMult                      0      0.00%      5.00% # Class of executed instruction
system.cpu2.op_class::SimdMultAcc                   0      0.00%      5.00% # Class of executed instruction
system.cpu2.op_class::SimdShift                     0      0.00%      5.00% # Class of executed instruction
system.cpu2.op_class::SimdShiftAcc                  0      0.00%      5.00% # Class of executed instruction
system.cpu2.op_class::SimdDiv                       0      0.00%      5.00% # Class of executed instruction
system.cpu2.op_class::SimdSqrt                      0      0.00%      5.00% # Class of executed instruction
system.cpu2.op_class::SimdFloatAdd                  5     25.00%     30.00% # Class of executed instruction
system.cpu2.op_class::SimdFloatAlu                  0      0.00%     30.00% # Class of executed instruction
system.cpu2.op_class::SimdFloatCmp                  0      0.00%     30.00% # Class of executed instruction
system.cpu2.op_class::SimdFloatCvt                  0      0.00%     30.00% # Class of executed instruction
system.cpu2.op_class::SimdFloatDiv                  0      0.00%     30.00% # Class of executed instruction
system.cpu2.op_class::SimdFloatMisc                 0      0.00%     30.00% # Class of executed instruction
system.cpu2.op_class::SimdFloatMult                 6     30.00%     60.00% # Class of executed instruction
system.cpu2.op_class::SimdFloatMultAcc              0      0.00%     60.00% # Class of executed instruction
system.cpu2.op_class::SimdFloatSqrt                 0      0.00%     60.00% # Class of executed instruction
system.cpu2.op_class::SimdReduceAdd                 0      0.00%     60.00% # Class of executed instruction
system.cpu2.op_class::SimdReduceAlu                 0      0.00%     60.00% # Class of executed instruction
system.cpu2.op_class::SimdReduceCmp                 0      0.00%     60.00% # Class of executed instruction
system.cpu2.op_class::SimdFloatReduceAdd            0      0.00%     60.00% # Class of executed instruction
system.cpu2.op_class::SimdFloatReduceCmp            0      0.00%     60.00% # Class of executed instruction
system.cpu2.op_class::SimdAes                       0      0.00%     60.00% # Class of executed instruction
system.cpu2.op_class::SimdAesMix                    0      0.00%     60.00% # Class of executed instruction
system.cpu2.op_class::SimdSha1Hash                  0      0.00%     60.00% # Class of executed instruction
system.cpu2.op_class::SimdSha1Hash2                 0      0.00%     60.00% # Class of executed instruction
system.cpu2.op_class::SimdSha256Hash                0      0.00%     60.00% # Class of executed instruction
system.cpu2.op_class::SimdSha256Hash2               0      0.00%     60.00% # Class of executed instruction
system.cpu2.op_class::SimdShaSigma2                 0      0.00%     60.00% # Class of executed instruction
system.cpu2.op_class::SimdShaSigma3                 0      0.00%     60.00% # Class of executed instruction
system.cpu2.op_class::SimdPredAlu                   0      0.00%     60.00% # Class of executed instruction
system.cpu2.op_class::MemRead                       0      0.00%     60.00% # Class of executed instruction
system.cpu2.op_class::MemWrite                      0      0.00%     60.00% # Class of executed instruction
system.cpu2.op_class::FloatMemRead                  7     35.00%     95.00% # Class of executed instruction
system.cpu2.op_class::FloatMemWrite                 1      5.00%    100.00% # Class of executed instruction
system.cpu2.op_class::IprAccess                     0      0.00%    100.00% # Class of executed instruction
system.cpu2.op_class::InstPrefetch                  0      0.00%    100.00% # Class of executed instruction
system.cpu2.op_class::total                        20                       # Class of executed instruction
system.cpu2.workload.numSyscalls                    0                       # Number of system calls
system.cpu3.committedInsts                         11                       # Number of instructions committed
system.cpu3.committedOps                           24                       # Number of ops (including micro ops) committed
system.cpu3.idle_fraction                           0                       # Percentage of idle cycles
system.cpu3.l2bus.snoop_filter.hit_multi_requests            2                       # Number of requests hitting in the snoop filter with multiple (>1) holders of the requested data.
system.cpu3.l2bus.snoop_filter.hit_multi_snoops            0                       # Number of snoops hitting in the snoop filter with multiple (>1) holders of the requested data.
system.cpu3.l2bus.snoop_filter.hit_single_requests       372093                       # Number of requests hitting in the snoop filter with a single holder of the requested data.
system.cpu3.l2bus.snoop_filter.hit_single_snoops          517                       # Number of snoops hitting in the snoop filter with a single holder of the requested data.
system.cpu3.l2bus.snoop_filter.tot_requests       744825                       # Total number of requests made to the snoop filter.
system.cpu3.l2bus.snoop_filter.tot_snoops          517                       # Total number of snoops made to the snoop filter.
system.cpu3.mmucache.mmubus.snoop_filter.hit_multi_requests            0                       # Number of requests hitting in the snoop filter with multiple (>1) holders of the requested data.
system.cpu3.mmucache.mmubus.snoop_filter.hit_multi_snoops            0                       # Number of snoops hitting in the snoop filter with multiple (>1) holders of the requested data.
system.cpu3.mmucache.mmubus.snoop_filter.hit_single_requests            0                       # Number of requests hitting in the snoop filter with a single holder of the requested data.
system.cpu3.mmucache.mmubus.snoop_filter.hit_single_snoops            0                       # Number of snoops hitting in the snoop filter with a single holder of the requested data.
system.cpu3.mmucache.mmubus.snoop_filter.tot_requests            0                       # Total number of requests made to the snoop filter.
system.cpu3.mmucache.mmubus.snoop_filter.tot_snoops            0                       # Total number of snoops made to the snoop filter.
system.cpu3.not_idle_fraction                       1                       # Percentage of non-idle cycles
system.cpu3.numCycles                              30                       # number of cpu cycles simulated
system.cpu3.numWorkItemsCompleted                   0                       # number of work items this cpu completed
system.cpu3.numWorkItemsStarted                     0                       # number of work items this cpu started
system.cpu3.num_busy_cycles                        30                       # Number of busy cycles
system.cpu3.num_cc_register_writes                 12                       # number of times the CC registers were written
system.cpu3.num_conditional_control_insts            0                       # number of instructions that are conditional controls
system.cpu3.num_fp_alu_accesses                    12                       # Number of float alu accesses
system.cpu3.num_fp_insts                           12                       # number of float instructions
system.cpu3.num_fp_register_reads                   6                       # number of times the floating registers were read
system.cpu3.num_fp_register_writes                 12                       # number of times the floating registers were written
system.cpu3.num_func_calls                          0                       # number of times a function call or return occured
system.cpu3.num_idle_cycles                         0                       # Number of idle cycles
system.cpu3.num_int_alu_accesses                   16                       # Number of integer alu accesses
system.cpu3.num_int_insts                          16                       # number of integer instructions
system.cpu3.num_int_register_reads                 24                       # number of times the integer registers were read
system.cpu3.num_int_register_writes                12                       # number of times the integer registers were written
system.cpu3.num_load_insts                          4                       # Number of load instructions
system.cpu3.num_mem_refs                            4                       # number of memory refs
system.cpu3.num_store_insts                         0                       # Number of store instructions
system.cpu3.num_vec_alu_accesses                    0                       # Number of vector alu accesses
system.cpu3.num_vec_insts                           0                       # number of vector instructions
system.cpu3.num_vec_register_reads                  0                       # number of times the vector registers were read
system.cpu3.num_vec_register_writes                 0                       # number of times the vector registers were written
system.cpu3.op_class::No_OpClass                    0      0.00%      0.00% # Class of executed instruction
system.cpu3.op_class::IntAlu                       12     50.00%     50.00% # Class of executed instruction
system.cpu3.op_class::IntMult                       0      0.00%     50.00% # Class of executed instruction
system.cpu3.op_class::IntDiv                        0      0.00%     50.00% # Class of executed instruction
system.cpu3.op_class::FloatAdd                      6     25.00%     75.00% # Class of executed instruction
system.cpu3.op_class::FloatCmp                      0      0.00%     75.00% # Class of executed instruction
system.cpu3.op_class::FloatCvt                      0      0.00%     75.00% # Class of executed instruction
system.cpu3.op_class::FloatMult                     0      0.00%     75.00% # Class of executed instruction
system.cpu3.op_class::FloatMultAcc                  0      0.00%     75.00% # Class of executed instruction
system.cpu3.op_class::FloatDiv                      0      0.00%     75.00% # Class of executed instruction
system.cpu3.op_class::FloatMisc                     0      0.00%     75.00% # Class of executed instruction
system.cpu3.op_class::FloatSqrt                     0      0.00%     75.00% # Class of executed instruction
system.cpu3.op_class::SimdAdd                       0      0.00%     75.00% # Class of executed instruction
system.cpu3.op_class::SimdAddAcc                    0      0.00%     75.00% # Class of executed instruction
system.cpu3.op_class::SimdAlu                       0      0.00%     75.00% # Class of executed instruction
system.cpu3.op_class::SimdCmp                       0      0.00%     75.00% # Class of executed instruction
system.cpu3.op_class::SimdCvt                       0      0.00%     75.00% # Class of executed instruction
system.cpu3.op_class::SimdMisc                      0      0.00%     75.00% # Class of executed instruction
system.cpu3.op_class::SimdMult                      0      0.00%     75.00% # Class of executed instruction
system.cpu3.op_class::SimdMultAcc                   0      0.00%     75.00% # Class of executed instruction
system.cpu3.op_class::SimdShift                     0      0.00%     75.00% # Class of executed instruction
system.cpu3.op_class::SimdShiftAcc                  0      0.00%     75.00% # Class of executed instruction
system.cpu3.op_class::SimdDiv                       0      0.00%     75.00% # Class of executed instruction
system.cpu3.op_class::SimdSqrt                      0      0.00%     75.00% # Class of executed instruction
system.cpu3.op_class::SimdFloatAdd                  2      8.33%     83.33% # Class of executed instruction
system.cpu3.op_class::SimdFloatAlu                  0      0.00%     83.33% # Class of executed instruction
system.cpu3.op_class::SimdFloatCmp                  0      0.00%     83.33% # Class of executed instruction
system.cpu3.op_class::SimdFloatCvt                  0      0.00%     83.33% # Class of executed instruction
system.cpu3.op_class::SimdFloatDiv                  0      0.00%     83.33% # Class of executed instruction
system.cpu3.op_class::SimdFloatMisc                 0      0.00%     83.33% # Class of executed instruction
system.cpu3.op_class::SimdFloatMult                 0      0.00%     83.33% # Class of executed instruction
system.cpu3.op_class::SimdFloatMultAcc              0      0.00%     83.33% # Class of executed instruction
system.cpu3.op_class::SimdFloatSqrt                 0      0.00%     83.33% # Class of executed instruction
system.cpu3.op_class::SimdReduceAdd                 0      0.00%     83.33% # Class of executed instruction
system.cpu3.op_class::SimdReduceAlu                 0      0.00%     83.33% # Class of executed instruction
system.cpu3.op_class::SimdReduceCmp                 0      0.00%     83.33% # Class of executed instruction
system.cpu3.op_class::SimdFloatReduceAdd            0      0.00%     83.33% # Class of executed instruction
system.cpu3.op_class::SimdFloatReduceCmp            0      0.00%     83.33% # Class of executed instruction
system.cpu3.op_class::SimdAes                       0      0.00%     83.33% # Class of executed instruction
system.cpu3.op_class::SimdAesMix                    0      0.00%     83.33% # Class of executed instruction
system.cpu3.op_class::SimdSha1Hash                  0      0.00%     83.33% # Class of executed instruction
system.cpu3.op_class::SimdSha1Hash2                 0      0.00%     83.33% # Class of executed instruction
system.cpu3.op_class::SimdSha256Hash                0      0.00%     83.33% # Class of executed instruction
system.cpu3.op_class::SimdSha256Hash2               0      0.00%     83.33% # Class of executed instruction
system.cpu3.op_class::SimdShaSigma2                 0      0.00%     83.33% # Class of executed instruction
system.cpu3.op_class::SimdShaSigma3                 0      0.00%     83.33% # Class of executed instruction
system.cpu3.op_class::SimdPredAlu                   0      0.00%     83.33% # Class of executed instruction
system.cpu3.op_class::MemRead                       0      0.00%     83.33% # Class of executed instruction
system.cpu3.op_class::MemWrite                      0      0.00%     83.33% # Class of executed instruction
system.cpu3.op_class::FloatMemRead                  4     16.67%    100.00% # Class of executed instruction
system.cpu3.op_class::FloatMemWrite                 0      0.00%    100.00% # Class of executed instruction
system.cpu3.op_class::IprAccess                     0      0.00%    100.00% # Class of executed instruction
system.cpu3.op_class::InstPrefetch                  0      0.00%    100.00% # Class of executed instruction
system.cpu3.op_class::total                        24                       # Class of executed instruction
system.cpu3.workload.numSyscalls                    0                       # Number of system calls
system.l3bus.snoop_filter.hit_multi_requests            0                       # Number of requests hitting in the snoop filter with multiple (>1) holders of the requested data.
system.l3bus.snoop_filter.hit_multi_snoops            0                       # Number of snoops hitting in the snoop filter with multiple (>1) holders of the requested data.
system.l3bus.snoop_filter.hit_single_requests      1641750                       # Number of requests hitting in the snoop filter with a single holder of the requested data.
system.l3bus.snoop_filter.hit_single_snoops           14                       # Number of snoops hitting in the snoop filter with a single holder of the requested data.
system.l3bus.snoop_filter.tot_requests        3312079                       # Total number of requests made to the snoop filter.
system.l3bus.snoop_filter.tot_snoops               14                       # Total number of snoops made to the snoop filter.
system.membus.snoop_filter.hit_multi_requests            0                       # Number of requests hitting in the snoop filter with multiple (>1) holders of the requested data.
system.membus.snoop_filter.hit_multi_snoops            0                       # Number of snoops hitting in the snoop filter with multiple (>1) holders of the requested data.
system.membus.snoop_filter.hit_single_requests      1350613                       # Number of requests hitting in the snoop filter with a single holder of the requested data.
system.membus.snoop_filter.hit_single_snoops            0                       # Number of snoops hitting in the snoop filter with a single holder of the requested data.
system.membus.snoop_filter.tot_requests       2782851                       # Total number of requests made to the snoop filter.
system.membus.snoop_filter.tot_snoops               0                       # Total number of snoops made to the snoop filter.
system.switch_cpus0.cc_regfile_reads         30147249                       # number of cc regfile reads
system.switch_cpus0.cc_regfile_writes        16827170                       # number of cc regfile writes
system.switch_cpus0.committedInsts           27533030                       # Number of Instructions Simulated
system.switch_cpus0.committedOps             50445206                       # Number of Ops (including micro ops) Simulated
system.switch_cpus0.cpi                      3.833800                       # CPI: Cycles Per Instruction
system.switch_cpus0.cpi_total                3.833800                       # CPI: Total CPI of All Threads
system.switch_cpus0.fp_regfile_reads           448144                       # number of floating regfile reads
system.switch_cpus0.fp_regfile_writes          208167                       # number of floating regfile writes
system.switch_cpus0.idleCycles                6819940                       # Total number of cycles that the CPU has spent unscheduled due to idling
system.switch_cpus0.iew.branchMispredicts       148570                       # Number of branch mispredicts detected at execute
system.switch_cpus0.iew.exec_branches         6534076                       # Number of branches executed
system.switch_cpus0.iew.exec_nop                    0                       # number of nop insts executed
system.switch_cpus0.iew.exec_rate            0.519103                       # Inst execution rate
system.switch_cpus0.iew.exec_refs            13109794                       # number of memory reference insts executed
system.switch_cpus0.iew.exec_stores           4348685                       # Number of stores executed
system.switch_cpus0.iew.exec_swp                    0                       # number of swp insts executed
system.switch_cpus0.iew.iewBlockCycles       29123143                       # Number of cycles IEW is blocking
system.switch_cpus0.iew.iewDispLoadInsts      9081450                       # Number of dispatched load instructions
system.switch_cpus0.iew.iewDispNonSpecInsts         1255                       # Number of dispatched non-speculative instructions
system.switch_cpus0.iew.iewDispSquashedInsts        11956                       # Number of squashed instructions skipped by dispatch
system.switch_cpus0.iew.iewDispStoreInsts      4563370                       # Number of dispatched store instructions
system.switch_cpus0.iew.iewDispatchedInsts     56878543                       # Number of instructions dispatched to IQ
system.switch_cpus0.iew.iewExecLoadInsts      8761109                       # Number of load instructions executed
system.switch_cpus0.iew.iewExecSquashedInsts       249824                       # Number of squashed instructions skipped in execute
system.switch_cpus0.iew.iewExecutedInsts     54794488                       # Number of executed instructions
system.switch_cpus0.iew.iewIQFullEvents        114930                       # Number of times the IQ has become full, causing a stall
system.switch_cpus0.iew.iewIdleCycles               0                       # Number of cycles IEW is idle
system.switch_cpus0.iew.iewLSQFullEvents      5045887                       # Number of times the LSQ has become full, causing a stall
system.switch_cpus0.iew.iewSquashCycles        135255                       # Number of cycles IEW is squashing
system.switch_cpus0.iew.iewUnblockCycles      5235266                       # Number of cycles IEW is unblocking
system.switch_cpus0.iew.memOrderViolationEvents         3875                       # Number of memory order violations
system.switch_cpus0.iew.predictedNotTakenIncorrect       111922                       # Number of branches that were predicted not taken incorrectly
system.switch_cpus0.iew.predictedTakenIncorrect        36648                       # Number of branches that were predicted taken incorrectly
system.switch_cpus0.iew.wb_consumers         66791416                       # num instructions consuming a value
system.switch_cpus0.iew.wb_count             54603189                       # cumulative count of insts written-back
system.switch_cpus0.iew.wb_fanout            0.587480                       # average fanout of values written-back
system.switch_cpus0.iew.wb_producers         39238614                       # num instructions producing a value
system.switch_cpus0.iew.wb_rate              0.517291                       # insts written-back per cycle
system.switch_cpus0.iew.wb_sent              54745224                       # cumulative count of insts sent to commit
system.switch_cpus0.int_regfile_reads        82147712                       # number of integer regfile reads
system.switch_cpus0.int_regfile_writes       43770226                       # number of integer regfile writes
system.switch_cpus0.ipc                      0.260838                       # IPC: Instructions Per Cycle
system.switch_cpus0.ipc_total                0.260838                       # IPC: Total IPC of All Threads
system.switch_cpus0.iq.FU_type_0::No_OpClass       220055      0.40%      0.40% # Type of FU issued
system.switch_cpus0.iq.FU_type_0::IntAlu     41369367     75.16%     75.56% # Type of FU issued
system.switch_cpus0.iq.FU_type_0::IntMult        31433      0.06%     75.61% # Type of FU issued
system.switch_cpus0.iq.FU_type_0::IntDiv       146388      0.27%     75.88% # Type of FU issued
system.switch_cpus0.iq.FU_type_0::FloatAdd         4713      0.01%     75.89% # Type of FU issued
system.switch_cpus0.iq.FU_type_0::FloatCmp            0      0.00%     75.89% # Type of FU issued
system.switch_cpus0.iq.FU_type_0::FloatCvt            0      0.00%     75.89% # Type of FU issued
system.switch_cpus0.iq.FU_type_0::FloatMult            4      0.00%     75.89% # Type of FU issued
system.switch_cpus0.iq.FU_type_0::FloatMultAcc            0      0.00%     75.89% # Type of FU issued
system.switch_cpus0.iq.FU_type_0::FloatDiv            0      0.00%     75.89% # Type of FU issued
system.switch_cpus0.iq.FU_type_0::FloatMisc            0      0.00%     75.89% # Type of FU issued
system.switch_cpus0.iq.FU_type_0::FloatSqrt            0      0.00%     75.89% # Type of FU issued
system.switch_cpus0.iq.FU_type_0::SimdAdd            2      0.00%     75.89% # Type of FU issued
system.switch_cpus0.iq.FU_type_0::SimdAddAcc            0      0.00%     75.89% # Type of FU issued
system.switch_cpus0.iq.FU_type_0::SimdAlu        22089      0.04%     75.93% # Type of FU issued
system.switch_cpus0.iq.FU_type_0::SimdCmp            0      0.00%     75.93% # Type of FU issued
system.switch_cpus0.iq.FU_type_0::SimdCvt         5390      0.01%     75.94% # Type of FU issued
system.switch_cpus0.iq.FU_type_0::SimdMisc        38411      0.07%     76.01% # Type of FU issued
system.switch_cpus0.iq.FU_type_0::SimdMult            0      0.00%     76.01% # Type of FU issued
system.switch_cpus0.iq.FU_type_0::SimdMultAcc            0      0.00%     76.01% # Type of FU issued
system.switch_cpus0.iq.FU_type_0::SimdShift            0      0.00%     76.01% # Type of FU issued
system.switch_cpus0.iq.FU_type_0::SimdShiftAcc            0      0.00%     76.01% # Type of FU issued
system.switch_cpus0.iq.FU_type_0::SimdDiv            0      0.00%     76.01% # Type of FU issued
system.switch_cpus0.iq.FU_type_0::SimdSqrt            0      0.00%     76.01% # Type of FU issued
system.switch_cpus0.iq.FU_type_0::SimdFloatAdd            0      0.00%     76.01% # Type of FU issued
system.switch_cpus0.iq.FU_type_0::SimdFloatAlu            0      0.00%     76.01% # Type of FU issued
system.switch_cpus0.iq.FU_type_0::SimdFloatCmp            0      0.00%     76.01% # Type of FU issued
system.switch_cpus0.iq.FU_type_0::SimdFloatCvt            0      0.00%     76.01% # Type of FU issued
system.switch_cpus0.iq.FU_type_0::SimdFloatDiv            0      0.00%     76.01% # Type of FU issued
system.switch_cpus0.iq.FU_type_0::SimdFloatMisc            0      0.00%     76.01% # Type of FU issued
system.switch_cpus0.iq.FU_type_0::SimdFloatMult            0      0.00%     76.01% # Type of FU issued
system.switch_cpus0.iq.FU_type_0::SimdFloatMultAcc            0      0.00%     76.01% # Type of FU issued
system.switch_cpus0.iq.FU_type_0::SimdFloatSqrt            0      0.00%     76.01% # Type of FU issued
system.switch_cpus0.iq.FU_type_0::SimdReduceAdd            0      0.00%     76.01% # Type of FU issued
system.switch_cpus0.iq.FU_type_0::SimdReduceAlu            0      0.00%     76.01% # Type of FU issued
system.switch_cpus0.iq.FU_type_0::SimdReduceCmp            0      0.00%     76.01% # Type of FU issued
system.switch_cpus0.iq.FU_type_0::SimdFloatReduceAdd            0      0.00%     76.01% # Type of FU issued
system.switch_cpus0.iq.FU_type_0::SimdFloatReduceCmp            0      0.00%     76.01% # Type of FU issued
system.switch_cpus0.iq.FU_type_0::SimdAes            0      0.00%     76.01% # Type of FU issued
system.switch_cpus0.iq.FU_type_0::SimdAesMix            0      0.00%     76.01% # Type of FU issued
system.switch_cpus0.iq.FU_type_0::SimdSha1Hash            0      0.00%     76.01% # Type of FU issued
system.switch_cpus0.iq.FU_type_0::SimdSha1Hash2            0      0.00%     76.01% # Type of FU issued
system.switch_cpus0.iq.FU_type_0::SimdSha256Hash            0      0.00%     76.01% # Type of FU issued
system.switch_cpus0.iq.FU_type_0::SimdSha256Hash2            0      0.00%     76.01% # Type of FU issued
system.switch_cpus0.iq.FU_type_0::SimdShaSigma2            0      0.00%     76.01% # Type of FU issued
system.switch_cpus0.iq.FU_type_0::SimdShaSigma3            0      0.00%     76.01% # Type of FU issued
system.switch_cpus0.iq.FU_type_0::SimdPredAlu            0      0.00%     76.01% # Type of FU issued
system.switch_cpus0.iq.FU_type_0::MemRead      8681036     15.77%     91.78% # Type of FU issued
system.switch_cpus0.iq.FU_type_0::MemWrite      4066640      7.39%     99.17% # Type of FU issued
system.switch_cpus0.iq.FU_type_0::FloatMemRead       142238      0.26%     99.42% # Type of FU issued
system.switch_cpus0.iq.FU_type_0::FloatMemWrite       316546      0.58%    100.00% # Type of FU issued
system.switch_cpus0.iq.FU_type_0::IprAccess            0      0.00%    100.00% # Type of FU issued
system.switch_cpus0.iq.FU_type_0::InstPrefetch            0      0.00%    100.00% # Type of FU issued
system.switch_cpus0.iq.FU_type_0::total      55044312                       # Type of FU issued
system.switch_cpus0.iq.fp_alu_accesses         607881                       # Number of floating point alu accesses
system.switch_cpus0.iq.fp_inst_queue_reads      1144703                       # Number of floating instruction queue reads
system.switch_cpus0.iq.fp_inst_queue_wakeup_accesses       522977                       # Number of floating instruction queue wakeup accesses
system.switch_cpus0.iq.fp_inst_queue_writes       855549                       # Number of floating instruction queue writes
system.switch_cpus0.iq.fu_busy_cnt            1462672                       # FU busy when requested
system.switch_cpus0.iq.fu_busy_rate          0.026573                       # FU busy rate (busy events/executed inst)
system.switch_cpus0.iq.fu_full::No_OpClass            0      0.00%      0.00% # attempts to use FU when none available
system.switch_cpus0.iq.fu_full::IntAlu        1094864     74.85%     74.85% # attempts to use FU when none available
system.switch_cpus0.iq.fu_full::IntMult             0      0.00%     74.85% # attempts to use FU when none available
system.switch_cpus0.iq.fu_full::IntDiv              0      0.00%     74.85% # attempts to use FU when none available
system.switch_cpus0.iq.fu_full::FloatAdd            0      0.00%     74.85% # attempts to use FU when none available
system.switch_cpus0.iq.fu_full::FloatCmp            0      0.00%     74.85% # attempts to use FU when none available
system.switch_cpus0.iq.fu_full::FloatCvt            0      0.00%     74.85% # attempts to use FU when none available
system.switch_cpus0.iq.fu_full::FloatMult            0      0.00%     74.85% # attempts to use FU when none available
system.switch_cpus0.iq.fu_full::FloatMultAcc            0      0.00%     74.85% # attempts to use FU when none available
system.switch_cpus0.iq.fu_full::FloatDiv            0      0.00%     74.85% # attempts to use FU when none available
system.switch_cpus0.iq.fu_full::FloatMisc            0      0.00%     74.85% # attempts to use FU when none available
system.switch_cpus0.iq.fu_full::FloatSqrt            0      0.00%     74.85% # attempts to use FU when none available
system.switch_cpus0.iq.fu_full::SimdAdd             0      0.00%     74.85% # attempts to use FU when none available
system.switch_cpus0.iq.fu_full::SimdAddAcc            0      0.00%     74.85% # attempts to use FU when none available
system.switch_cpus0.iq.fu_full::SimdAlu          1692      0.12%     74.97% # attempts to use FU when none available
system.switch_cpus0.iq.fu_full::SimdCmp             0      0.00%     74.97% # attempts to use FU when none available
system.switch_cpus0.iq.fu_full::SimdCvt            12      0.00%     74.97% # attempts to use FU when none available
system.switch_cpus0.iq.fu_full::SimdMisc           96      0.01%     74.98% # attempts to use FU when none available
system.switch_cpus0.iq.fu_full::SimdMult            0      0.00%     74.98% # attempts to use FU when none available
system.switch_cpus0.iq.fu_full::SimdMultAcc            0      0.00%     74.98% # attempts to use FU when none available
system.switch_cpus0.iq.fu_full::SimdShift            0      0.00%     74.98% # attempts to use FU when none available
system.switch_cpus0.iq.fu_full::SimdShiftAcc            0      0.00%     74.98% # attempts to use FU when none available
system.switch_cpus0.iq.fu_full::SimdDiv             0      0.00%     74.98% # attempts to use FU when none available
system.switch_cpus0.iq.fu_full::SimdSqrt            0      0.00%     74.98% # attempts to use FU when none available
system.switch_cpus0.iq.fu_full::SimdFloatAdd            0      0.00%     74.98% # attempts to use FU when none available
system.switch_cpus0.iq.fu_full::SimdFloatAlu            0      0.00%     74.98% # attempts to use FU when none available
system.switch_cpus0.iq.fu_full::SimdFloatCmp            0      0.00%     74.98% # attempts to use FU when none available
system.switch_cpus0.iq.fu_full::SimdFloatCvt            0      0.00%     74.98% # attempts to use FU when none available
system.switch_cpus0.iq.fu_full::SimdFloatDiv            0      0.00%     74.98% # attempts to use FU when none available
system.switch_cpus0.iq.fu_full::SimdFloatMisc            0      0.00%     74.98% # attempts to use FU when none available
system.switch_cpus0.iq.fu_full::SimdFloatMult            0      0.00%     74.98% # attempts to use FU when none available
system.switch_cpus0.iq.fu_full::SimdFloatMultAcc            0      0.00%     74.98% # attempts to use FU when none available
system.switch_cpus0.iq.fu_full::SimdFloatSqrt            0      0.00%     74.98% # attempts to use FU when none available
system.switch_cpus0.iq.fu_full::SimdReduceAdd            0      0.00%     74.98% # attempts to use FU when none available
system.switch_cpus0.iq.fu_full::SimdReduceAlu            0      0.00%     74.98% # attempts to use FU when none available
system.switch_cpus0.iq.fu_full::SimdReduceCmp            0      0.00%     74.98% # attempts to use FU when none available
system.switch_cpus0.iq.fu_full::SimdFloatReduceAdd            0      0.00%     74.98% # attempts to use FU when none available
system.switch_cpus0.iq.fu_full::SimdFloatReduceCmp            0      0.00%     74.98% # attempts to use FU when none available
system.switch_cpus0.iq.fu_full::SimdAes             0      0.00%     74.98% # attempts to use FU when none available
system.switch_cpus0.iq.fu_full::SimdAesMix            0      0.00%     74.98% # attempts to use FU when none available
system.switch_cpus0.iq.fu_full::SimdSha1Hash            0      0.00%     74.98% # attempts to use FU when none available
system.switch_cpus0.iq.fu_full::SimdSha1Hash2            0      0.00%     74.98% # attempts to use FU when none available
system.switch_cpus0.iq.fu_full::SimdSha256Hash            0      0.00%     74.98% # attempts to use FU when none available
system.switch_cpus0.iq.fu_full::SimdSha256Hash2            0      0.00%     74.98% # attempts to use FU when none available
system.switch_cpus0.iq.fu_full::SimdShaSigma2            0      0.00%     74.98% # attempts to use FU when none available
system.switch_cpus0.iq.fu_full::SimdShaSigma3            0      0.00%     74.98% # attempts to use FU when none available
system.switch_cpus0.iq.fu_full::SimdPredAlu            0      0.00%     74.98% # attempts to use FU when none available
system.switch_cpus0.iq.fu_full::MemRead        166030     11.35%     86.33% # attempts to use FU when none available
system.switch_cpus0.iq.fu_full::MemWrite       127922      8.75%     95.07% # attempts to use FU when none available
system.switch_cpus0.iq.fu_full::FloatMemRead        40618      2.78%     97.85% # attempts to use FU when none available
system.switch_cpus0.iq.fu_full::FloatMemWrite        31438      2.15%    100.00% # attempts to use FU when none available
system.switch_cpus0.iq.fu_full::IprAccess            0      0.00%    100.00% # attempts to use FU when none available
system.switch_cpus0.iq.fu_full::InstPrefetch            0      0.00%    100.00% # attempts to use FU when none available
system.switch_cpus0.iq.int_alu_accesses      55679048                       # Number of integer alu accesses
system.switch_cpus0.iq.int_inst_queue_reads    209200062                       # Number of integer instruction queue reads
system.switch_cpus0.iq.int_inst_queue_wakeup_accesses     54080212                       # Number of integer instruction queue wakeup accesses
system.switch_cpus0.iq.int_inst_queue_writes     62459968                       # Number of integer instruction queue writes
system.switch_cpus0.iq.iqInstsAdded          56873187                       # Number of instructions added to the IQ (excludes non-spec)
system.switch_cpus0.iq.iqInstsIssued         55044312                       # Number of instructions issued
system.switch_cpus0.iq.iqNonSpecInstsAdded         5356                       # Number of non-speculative instructions added to the IQ
system.switch_cpus0.iq.iqSquashedInstsExamined      6433250                       # Number of squashed instructions iterated over during squash; mainly for profiling
system.switch_cpus0.iq.iqSquashedInstsIssued        57284                       # Number of squashed instructions issued
system.switch_cpus0.iq.iqSquashedNonSpecRemoved         4044                       # Number of squashed non-spec instructions that were removed
system.switch_cpus0.iq.iqSquashedOperandsExamined      7793379                       # Number of squashed operands that are examined and possibly removed from graph
system.switch_cpus0.iq.issued_per_cycle::samples     98736185                       # Number of insts issued each cycle
system.switch_cpus0.iq.issued_per_cycle::mean     0.557489                       # Number of insts issued each cycle
system.switch_cpus0.iq.issued_per_cycle::stdev     1.634502                       # Number of insts issued each cycle
system.switch_cpus0.iq.issued_per_cycle::underflows            0      0.00%      0.00% # Number of insts issued each cycle
system.switch_cpus0.iq.issued_per_cycle::0     85220206     86.31%     86.31% # Number of insts issued each cycle
system.switch_cpus0.iq.issued_per_cycle::1      2374777      2.41%     88.72% # Number of insts issued each cycle
system.switch_cpus0.iq.issued_per_cycle::2      1966273      1.99%     90.71% # Number of insts issued each cycle
system.switch_cpus0.iq.issued_per_cycle::3      1744453      1.77%     92.47% # Number of insts issued each cycle
system.switch_cpus0.iq.issued_per_cycle::4      1627110      1.65%     94.12% # Number of insts issued each cycle
system.switch_cpus0.iq.issued_per_cycle::5      1507806      1.53%     95.65% # Number of insts issued each cycle
system.switch_cpus0.iq.issued_per_cycle::6      1754929      1.78%     97.43% # Number of insts issued each cycle
system.switch_cpus0.iq.issued_per_cycle::7      1398462      1.42%     98.84% # Number of insts issued each cycle
system.switch_cpus0.iq.issued_per_cycle::8      1142169      1.16%    100.00% # Number of insts issued each cycle
system.switch_cpus0.iq.issued_per_cycle::overflows            0      0.00%    100.00% # Number of insts issued each cycle
system.switch_cpus0.iq.issued_per_cycle::min_value            0                       # Number of insts issued each cycle
system.switch_cpus0.iq.issued_per_cycle::max_value            8                       # Number of insts issued each cycle
system.switch_cpus0.iq.issued_per_cycle::total     98736185                       # Number of insts issued each cycle
system.switch_cpus0.iq.rate                  0.521470                       # Inst issue rate
system.switch_cpus0.iq.vec_alu_accesses             0                       # Number of vector alu accesses
system.switch_cpus0.iq.vec_inst_queue_reads            0                       # Number of vector instruction queue reads
system.switch_cpus0.iq.vec_inst_queue_wakeup_accesses            0                       # Number of vector instruction queue wakeup accesses
system.switch_cpus0.iq.vec_inst_queue_writes            0                       # Number of vector instruction queue writes
system.switch_cpus0.memDep0.conflictingLoads       599739                       # Number of conflicting loads.
system.switch_cpus0.memDep0.conflictingStores       445897                       # Number of conflicting stores.
system.switch_cpus0.memDep0.insertedLoads      9081450                       # Number of loads inserted to the mem dependence unit.
system.switch_cpus0.memDep0.insertedStores      4563370                       # Number of stores inserted to the mem dependence unit.
system.switch_cpus0.misc_regfile_reads       26824277                       # number of misc regfile reads
system.switch_cpus0.misc_regfile_writes             1                       # number of misc regfile writes
system.switch_cpus0.numCycles               105556125                       # number of cpu cycles simulated
system.switch_cpus0.numWorkItemsCompleted            0                       # number of work items this cpu completed
system.switch_cpus0.numWorkItemsStarted             0                       # number of work items this cpu started
system.switch_cpus0.timesIdled                  19423                       # Number of times that the entire CPU went into an idle state and unscheduled itself
system.switch_cpus1.cc_regfile_reads        165500981                       # number of cc regfile reads
system.switch_cpus1.cc_regfile_writes       117704731                       # number of cc regfile writes
system.switch_cpus1.committedInsts          250000003                       # Number of Instructions Simulated
system.switch_cpus1.committedOps            423135512                       # Number of Ops (including micro ops) Simulated
system.switch_cpus1.cpi                      0.422224                       # CPI: Cycles Per Instruction
system.switch_cpus1.cpi_total                0.422224                       # CPI: Total CPI of All Threads
system.switch_cpus1.fp_regfile_reads        362172215                       # number of floating regfile reads
system.switch_cpus1.fp_regfile_writes       162812794                       # number of floating regfile writes
system.switch_cpus1.idleCycles                 112407                       # Total number of cycles that the CPU has spent unscheduled due to idling
system.switch_cpus1.iew.branchMispredicts       118017                       # Number of branch mispredicts detected at execute
system.switch_cpus1.iew.exec_branches        29338853                       # Number of branches executed
system.switch_cpus1.iew.exec_nop                    0                       # number of nop insts executed
system.switch_cpus1.iew.exec_rate            4.072832                       # Inst execution rate
system.switch_cpus1.iew.exec_refs            52561355                       # number of memory reference insts executed
system.switch_cpus1.iew.exec_stores           2291826                       # Number of stores executed
system.switch_cpus1.iew.exec_swp                    0                       # number of swp insts executed
system.switch_cpus1.iew.iewBlockCycles        6490979                       # Number of cycles IEW is blocking
system.switch_cpus1.iew.iewDispLoadInsts     50437335                       # Number of dispatched load instructions
system.switch_cpus1.iew.iewDispNonSpecInsts            1                       # Number of dispatched non-speculative instructions
system.switch_cpus1.iew.iewDispSquashedInsts          587                       # Number of squashed instructions skipped by dispatch
system.switch_cpus1.iew.iewDispStoreInsts      2305535                       # Number of dispatched store instructions
system.switch_cpus1.iew.iewDispatchedInsts    431520749                       # Number of instructions dispatched to IQ
system.switch_cpus1.iew.iewExecLoadInsts     50269529                       # Number of load instructions executed
system.switch_cpus1.iew.iewExecSquashedInsts       128785                       # Number of squashed instructions skipped in execute
system.switch_cpus1.iew.iewExecutedInsts    429912372                       # Number of executed instructions
system.switch_cpus1.iew.iewIQFullEvents         24662                       # Number of times the IQ has become full, causing a stall
system.switch_cpus1.iew.iewIdleCycles               0                       # Number of cycles IEW is idle
system.switch_cpus1.iew.iewLSQFullEvents       198143                       # Number of times the LSQ has become full, causing a stall
system.switch_cpus1.iew.iewSquashCycles        174351                       # Number of cycles IEW is squashing
system.switch_cpus1.iew.iewUnblockCycles       224056                       # Number of cycles IEW is unblocking
system.switch_cpus1.iew.memOrderViolationEvents           73                       # Number of memory order violations
system.switch_cpus1.iew.predictedNotTakenIncorrect       114817                       # Number of branches that were predicted not taken incorrectly
system.switch_cpus1.iew.predictedTakenIncorrect         3200                       # Number of branches that were predicted taken incorrectly
system.switch_cpus1.iew.wb_consumers        644021839                       # num instructions consuming a value
system.switch_cpus1.iew.wb_count            429031072                       # cumulative count of insts written-back
system.switch_cpus1.iew.wb_fanout            0.589643                       # average fanout of values written-back
system.switch_cpus1.iew.wb_producers        379742906                       # num instructions producing a value
system.switch_cpus1.iew.wb_rate              4.064483                       # insts written-back per cycle
system.switch_cpus1.iew.wb_sent             429794566                       # cumulative count of insts sent to commit
system.switch_cpus1.int_regfile_reads       379265059                       # number of integer regfile reads
system.switch_cpus1.int_regfile_writes      225144853                       # number of integer regfile writes
system.switch_cpus1.ipc                      2.368408                       # IPC: Instructions Per Cycle
system.switch_cpus1.ipc_total                2.368408                       # IPC: Total IPC of All Threads
system.switch_cpus1.iq.FU_type_0::No_OpClass       684645      0.16%      0.16% # Type of FU issued
system.switch_cpus1.iq.FU_type_0::IntAlu    215305231     50.07%     50.23% # Type of FU issued
system.switch_cpus1.iq.FU_type_0::IntMult        35846      0.01%     50.23% # Type of FU issued
system.switch_cpus1.iq.FU_type_0::IntDiv           21      0.00%     50.23% # Type of FU issued
system.switch_cpus1.iq.FU_type_0::FloatAdd            1      0.00%     50.23% # Type of FU issued
system.switch_cpus1.iq.FU_type_0::FloatCmp            0      0.00%     50.23% # Type of FU issued
system.switch_cpus1.iq.FU_type_0::FloatCvt            0      0.00%     50.23% # Type of FU issued
system.switch_cpus1.iq.FU_type_0::FloatMult            0      0.00%     50.23% # Type of FU issued
system.switch_cpus1.iq.FU_type_0::FloatMultAcc            0      0.00%     50.23% # Type of FU issued
system.switch_cpus1.iq.FU_type_0::FloatDiv            0      0.00%     50.23% # Type of FU issued
system.switch_cpus1.iq.FU_type_0::FloatMisc            0      0.00%     50.23% # Type of FU issued
system.switch_cpus1.iq.FU_type_0::FloatSqrt            0      0.00%     50.23% # Type of FU issued
system.switch_cpus1.iq.FU_type_0::SimdAdd            0      0.00%     50.23% # Type of FU issued
system.switch_cpus1.iq.FU_type_0::SimdAddAcc            0      0.00%     50.23% # Type of FU issued
system.switch_cpus1.iq.FU_type_0::SimdAlu        28715      0.01%     50.24% # Type of FU issued
system.switch_cpus1.iq.FU_type_0::SimdCmp            0      0.00%     50.24% # Type of FU issued
system.switch_cpus1.iq.FU_type_0::SimdCvt            0      0.00%     50.24% # Type of FU issued
system.switch_cpus1.iq.FU_type_0::SimdMisc     37956176      8.83%     59.07% # Type of FU issued
system.switch_cpus1.iq.FU_type_0::SimdMult            0      0.00%     59.07% # Type of FU issued
system.switch_cpus1.iq.FU_type_0::SimdMultAcc            0      0.00%     59.07% # Type of FU issued
system.switch_cpus1.iq.FU_type_0::SimdShift            0      0.00%     59.07% # Type of FU issued
system.switch_cpus1.iq.FU_type_0::SimdShiftAcc            0      0.00%     59.07% # Type of FU issued
system.switch_cpus1.iq.FU_type_0::SimdDiv            0      0.00%     59.07% # Type of FU issued
system.switch_cpus1.iq.FU_type_0::SimdSqrt            0      0.00%     59.07% # Type of FU issued
system.switch_cpus1.iq.FU_type_0::SimdFloatAdd     37952029      8.83%     67.89% # Type of FU issued
system.switch_cpus1.iq.FU_type_0::SimdFloatAlu            0      0.00%     67.89% # Type of FU issued
system.switch_cpus1.iq.FU_type_0::SimdFloatCmp            0      0.00%     67.89% # Type of FU issued
system.switch_cpus1.iq.FU_type_0::SimdFloatCvt     47520705     11.05%     78.94% # Type of FU issued
system.switch_cpus1.iq.FU_type_0::SimdFloatDiv            0      0.00%     78.94% # Type of FU issued
system.switch_cpus1.iq.FU_type_0::SimdFloatMisc            0      0.00%     78.94% # Type of FU issued
system.switch_cpus1.iq.FU_type_0::SimdFloatMult     37950628      8.82%     87.77% # Type of FU issued
system.switch_cpus1.iq.FU_type_0::SimdFloatMultAcc            0      0.00%     87.77% # Type of FU issued
system.switch_cpus1.iq.FU_type_0::SimdFloatSqrt            0      0.00%     87.77% # Type of FU issued
system.switch_cpus1.iq.FU_type_0::SimdReduceAdd            0      0.00%     87.77% # Type of FU issued
system.switch_cpus1.iq.FU_type_0::SimdReduceAlu            0      0.00%     87.77% # Type of FU issued
system.switch_cpus1.iq.FU_type_0::SimdReduceCmp            0      0.00%     87.77% # Type of FU issued
system.switch_cpus1.iq.FU_type_0::SimdFloatReduceAdd            0      0.00%     87.77% # Type of FU issued
system.switch_cpus1.iq.FU_type_0::SimdFloatReduceCmp            0      0.00%     87.77% # Type of FU issued
system.switch_cpus1.iq.FU_type_0::SimdAes            0      0.00%     87.77% # Type of FU issued
system.switch_cpus1.iq.FU_type_0::SimdAesMix            0      0.00%     87.77% # Type of FU issued
system.switch_cpus1.iq.FU_type_0::SimdSha1Hash            0      0.00%     87.77% # Type of FU issued
system.switch_cpus1.iq.FU_type_0::SimdSha1Hash2            0      0.00%     87.77% # Type of FU issued
system.switch_cpus1.iq.FU_type_0::SimdSha256Hash            0      0.00%     87.77% # Type of FU issued
system.switch_cpus1.iq.FU_type_0::SimdSha256Hash2            0      0.00%     87.77% # Type of FU issued
system.switch_cpus1.iq.FU_type_0::SimdShaSigma2            0      0.00%     87.77% # Type of FU issued
system.switch_cpus1.iq.FU_type_0::SimdShaSigma3            0      0.00%     87.77% # Type of FU issued
[...]
system.switch_cpus3.commit.numCommittedDist::stdev     1.645455                       # Number of insts commited each cycle
system.switch_cpus3.commit.numCommittedDist::underflows            0      0.00%      0.00% # Number of insts commited each cycle
system.switch_cpus3.commit.numCommittedDist::0     97700415     93.05%     93.05% # Number of insts commited each cycle
system.switch_cpus3.commit.numCommittedDist::1      1265355      1.21%     94.25% # Number of insts commited each cycle
system.switch_cpus3.commit.numCommittedDist::2       507555      0.48%     94.73% # Number of insts commited each cycle
system.switch_cpus3.commit.numCommittedDist::3       491333      0.47%     95.20% # Number of insts commited each cycle
system.switch_cpus3.commit.numCommittedDist::4       290233      0.28%     95.48% # Number of insts commited each cycle
system.switch_cpus3.commit.numCommittedDist::5       182667      0.17%     95.65% # Number of insts commited each cycle
system.switch_cpus3.commit.numCommittedDist::6       217735      0.21%     95.86% # Number of insts commited each cycle
system.switch_cpus3.commit.numCommittedDist::7       140833      0.13%     95.99% # Number of insts commited each cycle
system.switch_cpus3.commit.numCommittedDist::8      4207084      4.01%    100.00% # Number of insts commited each cycle
system.switch_cpus3.commit.numCommittedDist::overflows            0      0.00%    100.00% # Number of insts commited each cycle
system.switch_cpus3.commit.numCommittedDist::min_value            0                       # Number of insts commited each cycle
system.switch_cpus3.commit.numCommittedDist::max_value            8                       # Number of insts commited each cycle
system.switch_cpus3.commit.numCommittedDist::total    105003210                       # Number of insts commited each cycle
system.switch_cpus3.commit.instsCommitted     23406380                       # Number of instructions committed
system.switch_cpus3.commit.opsCommitted      41777644                       # Number of ops (including micro ops) committed
system.switch_cpus3.commit.memRefs           11038457                       # Number of memory references committed
system.switch_cpus3.commit.loads              9450829                       # Number of loads committed
system.switch_cpus3.commit.amos                     0                       # Number of atomic instructions committed
system.switch_cpus3.commit.membars                  0                       # Number of memory barriers committed
system.switch_cpus3.commit.branches           1071335                       # Number of branches committed
system.switch_cpus3.commit.vector                   0                       # Number of committed Vector instructions.
system.switch_cpus3.commit.floating          33142107                       # Number of committed floating point instructions.
system.switch_cpus3.commit.integer           18567735                       # Number of committed integer instructions.
system.switch_cpus3.commit.functionCalls         1215                       # Number of function calls committed.
system.switch_cpus3.commit.committedInstType_0::No_OpClass        18652      0.04%      0.04% # Class of committed instruction
system.switch_cpus3.commit.committedInstType_0::IntAlu     11697164     28.00%     28.04% # Class of committed instruction
system.switch_cpus3.commit.committedInstType_0::IntMult          695      0.00%     28.04% # Class of committed instruction
system.switch_cpus3.commit.committedInstType_0::IntDiv            0      0.00%     28.04% # Class of committed instruction
system.switch_cpus3.commit.committedInstType_0::FloatAdd      8443752     20.21%     48.26% # Class of committed instruction
system.switch_cpus3.commit.committedInstType_0::FloatCmp            0      0.00%     48.26% # Class of committed instruction
system.switch_cpus3.commit.committedInstType_0::FloatCvt            0      0.00%     48.26% # Class of committed instruction
system.switch_cpus3.commit.committedInstType_0::FloatMult            0      0.00%     48.26% # Class of committed instruction
system.switch_cpus3.commit.committedInstType_0::FloatMultAcc            0      0.00%     48.26% # Class of committed instruction
system.switch_cpus3.commit.committedInstType_0::FloatDiv            0      0.00%     48.26% # Class of committed instruction
system.switch_cpus3.commit.committedInstType_0::FloatMisc            0      0.00%     48.26% # Class of committed instruction
system.switch_cpus3.commit.committedInstType_0::FloatSqrt            0      0.00%     48.26% # Class of committed instruction
system.switch_cpus3.commit.committedInstType_0::SimdAdd            0      0.00%     48.26% # Class of committed instruction
system.switch_cpus3.commit.committedInstType_0::SimdAddAcc            0      0.00%     48.26% # Class of committed instruction
system.switch_cpus3.commit.committedInstType_0::SimdAlu        13706      0.03%     48.29% # Class of committed instruction
system.switch_cpus3.commit.committedInstType_0::SimdCmp            0      0.00%     48.29% # Class of committed instruction
system.switch_cpus3.commit.committedInstType_0::SimdCvt            0      0.00%     48.29% # Class of committed instruction
system.switch_cpus3.commit.committedInstType_0::SimdMisc          406      0.00%     48.29% # Class of committed instruction
system.switch_cpus3.commit.committedInstType_0::SimdMult            0      0.00%     48.29% # Class of committed instruction
system.switch_cpus3.commit.committedInstType_0::SimdMultAcc            0      0.00%     48.29% # Class of committed instruction
system.switch_cpus3.commit.committedInstType_0::SimdShift            0      0.00%     48.29% # Class of committed instruction
system.switch_cpus3.commit.committedInstType_0::SimdShiftAcc            0      0.00%     48.29% # Class of committed instruction
system.switch_cpus3.commit.committedInstType_0::SimdDiv            0      0.00%     48.29% # Class of committed instruction
system.switch_cpus3.commit.committedInstType_0::SimdSqrt            0      0.00%     48.29% # Class of committed instruction
system.switch_cpus3.commit.committedInstType_0::SimdFloatAdd      5165796     12.36%     60.65% # Class of committed instruction
system.switch_cpus3.commit.committedInstType_0::SimdFloatAlu            0      0.00%     60.65% # Class of committed instruction
system.switch_cpus3.commit.committedInstType_0::SimdFloatCmp            0      0.00%     60.65% # Class of committed instruction
system.switch_cpus3.commit.committedInstType_0::SimdFloatCvt            0      0.00%     60.65% # Class of committed instruction
system.switch_cpus3.commit.committedInstType_0::SimdFloatDiv       704020      1.69%     62.34% # Class of committed instruction
system.switch_cpus3.commit.committedInstType_0::SimdFloatMisc            0      0.00%     62.34% # Class of committed instruction
system.switch_cpus3.commit.committedInstType_0::SimdFloatMult      4694996     11.24%     73.58% # Class of committed instruction
system.switch_cpus3.commit.committedInstType_0::SimdFloatMultAcc            0      0.00%     73.58% # Class of committed instruction
system.switch_cpus3.commit.committedInstType_0::SimdFloatSqrt            0      0.00%     73.58% # Class of committed instruction
system.switch_cpus3.commit.committedInstType_0::SimdReduceAdd            0      0.00%     73.58% # Class of committed instruction
system.switch_cpus3.commit.committedInstType_0::SimdReduceAlu            0      0.00%     73.58% # Class of committed instruction
system.switch_cpus3.commit.committedInstType_0::SimdReduceCmp            0      0.00%     73.58% # Class of committed instruction
system.switch_cpus3.commit.committedInstType_0::SimdFloatReduceAdd            0      0.00%     73.58% # Class of committed instruction
system.switch_cpus3.commit.committedInstType_0::SimdFloatReduceCmp            0      0.00%     73.58% # Class of committed instruction
system.switch_cpus3.commit.committedInstType_0::SimdAes            0      0.00%     73.58% # Class of committed instruction
system.switch_cpus3.commit.committedInstType_0::SimdAesMix            0      0.00%     73.58% # Class of committed instruction
system.switch_cpus3.commit.committedInstType_0::SimdSha1Hash            0      0.00%     73.58% # Class of committed instruction
system.switch_cpus3.commit.committedInstType_0::SimdSha1Hash2            0      0.00%     73.58% # Class of committed instruction
system.switch_cpus3.commit.committedInstType_0::SimdSha256Hash            0      0.00%     73.58% # Class of committed instruction
system.switch_cpus3.commit.committedInstType_0::SimdSha256Hash2            0      0.00%     73.58% # Class of committed instruction
system.switch_cpus3.commit.committedInstType_0::SimdShaSigma2            0      0.00%     73.58% # Class of committed instruction
system.switch_cpus3.commit.committedInstType_0::SimdShaSigma3            0      0.00%     73.58% # Class of committed instruction
system.switch_cpus3.commit.committedInstType_0::SimdPredAlu            0      0.00%     73.58% # Class of committed instruction
system.switch_cpus3.commit.committedInstType_0::MemRead      1028458      2.46%     76.04% # Class of committed instruction
system.switch_cpus3.commit.committedInstType_0::MemWrite        51148      0.12%     76.16% # Class of committed instruction
system.switch_cpus3.commit.committedInstType_0::FloatMemRead      8422371     20.16%     96.32% # Class of committed instruction
system.switch_cpus3.commit.committedInstType_0::FloatMemWrite      1536480      3.68%    100.00% # Class of committed instruction
system.switch_cpus3.commit.committedInstType_0::IprAccess            0      0.00%    100.00% # Class of committed instruction
system.switch_cpus3.commit.committedInstType_0::InstPrefetch            0      0.00%    100.00% # Class of committed instruction
system.switch_cpus3.commit.committedInstType_0::total     41777644                       # Class of committed instruction
system.switch_cpus3.commit.commitEligibleSamples      4207084                       # number cycles where commit BW limit reached
system.switch_cpus3.decode.idleCycles          530755                       # Number of cycles decode is idle
system.switch_cpus3.decode.blockedCycles     98383451                       # Number of cycles decode is blocked
system.switch_cpus3.decode.runCycles          5296746                       # Number of cycles decode is running
system.switch_cpus3.decode.unblockCycles      1013130                       # Number of cycles decode is unblocking
system.switch_cpus3.decode.squashCycles         34497                       # Number of cycles decode is squashing
system.switch_cpus3.decode.branchResolved      1082626                       # Number of times decode resolved a  branch
system.switch_cpus3.decode.branchMispred          115                       # Number of times decode detected a branch misprediction
system.switch_cpus3.decode.decodedInsts      44540064                       # Number of instructions handled by decode
system.switch_cpus3.decode.squashedInsts          582                       # Number of squashed instructions handled by decode
system.switch_cpus3.dtb.rdAccesses           10233562                       # TLB accesses on read requests
system.switch_cpus3.dtb.wrAccesses            1984186                       # TLB accesses on write requests
system.switch_cpus3.dtb.rdMisses                16127                       # TLB misses on read requests
system.switch_cpus3.dtb.wrMisses                  301                       # TLB misses on write requests
system.switch_cpus3.dtb.walker.power_state.pwrStateResidencyTicks::UNDEFINED 13754202795234                       # Cumulative time (in ticks) in various power states
system.switch_cpus3.fetch.icacheStallCycles        58655                       # Number of cycles fetch is stalled on an Icache miss
system.switch_cpus3.fetch.insts              25404618                       # Number of instructions fetch has processed
system.switch_cpus3.fetch.branches            1177817                       # Number of branches that fetch encountered
system.switch_cpus3.fetch.predictedBranches      1116046                       # Number of branches that fetch has predicted taken
system.switch_cpus3.fetch.cycles            105165322                       # Number of cycles fetch has run and was not squashing or blocked
system.switch_cpus3.fetch.squashCycles          69222                       # Number of cycles fetch has spent squashing
system.switch_cpus3.fetch.cacheLines          2922272                       # Number of cache lines fetched
system.switch_cpus3.fetch.icacheSquashes          287                       # Number of outstanding Icache misses that were squashed
system.switch_cpus3.fetch.nisnDist::samples    105258588                       # Number of instructions fetched each cycle (Total)
system.switch_cpus3.fetch.nisnDist::mean     0.434350                       # Number of instructions fetched each cycle (Total)
system.switch_cpus3.fetch.nisnDist::stdev     1.709661                       # Number of instructions fetched each cycle (Total)
system.switch_cpus3.fetch.nisnDist::underflows            0      0.00%      0.00% # Number of instructions fetched each cycle (Total)
system.switch_cpus3.fetch.nisnDist::0        97860157     92.97%     92.97% # Number of instructions fetched each cycle (Total)
system.switch_cpus3.fetch.nisnDist::1          436105      0.41%     93.39% # Number of instructions fetched each cycle (Total)
system.switch_cpus3.fetch.nisnDist::2          508782      0.48%     93.87% # Number of instructions fetched each cycle (Total)
system.switch_cpus3.fetch.nisnDist::3          714845      0.68%     94.55% # Number of instructions fetched each cycle (Total)
system.switch_cpus3.fetch.nisnDist::4          552293      0.52%     95.07% # Number of instructions fetched each cycle (Total)
system.switch_cpus3.fetch.nisnDist::5          133466      0.13%     95.20% # Number of instructions fetched each cycle (Total)
system.switch_cpus3.fetch.nisnDist::6          371753      0.35%     95.55% # Number of instructions fetched each cycle (Total)
system.switch_cpus3.fetch.nisnDist::7          435624      0.41%     95.97% # Number of instructions fetched each cycle (Total)
system.switch_cpus3.fetch.nisnDist::8         4245563      4.03%    100.00% # Number of instructions fetched each cycle (Total)
system.switch_cpus3.fetch.nisnDist::overflows            0      0.00%    100.00% # Number of instructions fetched each cycle (Total)
system.switch_cpus3.fetch.nisnDist::min_value            0                       # Number of instructions fetched each cycle (Total)
system.switch_cpus3.fetch.nisnDist::max_value            8                       # Number of instructions fetched each cycle (Total)
system.switch_cpus3.fetch.nisnDist::total    105258588                       # Number of instructions fetched each cycle (Total)
system.switch_cpus3.fetch.branchRate         0.011158                       # Number of branch fetches per cycle
system.switch_cpus3.fetch.rate               0.240674                       # Number of inst fetches per cycle
system.switch_cpus3.itb.rdAccesses                  0                       # TLB accesses on read requests
system.switch_cpus3.itb.wrAccesses            2922272                       # TLB accesses on write requests
system.switch_cpus3.itb.rdMisses                    0                       # TLB misses on read requests
system.switch_cpus3.itb.wrMisses                   26                       # TLB misses on write requests
system.switch_cpus3.itb.walker.power_state.pwrStateResidencyTicks::UNDEFINED 13754202795234                       # Cumulative time (in ticks) in various power states
system.switch_cpus3.lsq0.forwLoads              14767                       # Number of loads that had data forwarded from stores
system.switch_cpus3.lsq0.squashedLoads         564243                       # Number of loads squashed
system.switch_cpus3.lsq0.ignoredResponses            7                       # Number of memory responses ignored because the instruction is squashed
system.switch_cpus3.lsq0.memOrderViolation          370                       # Number of memory ordering violations
system.switch_cpus3.lsq0.squashedStores        549616                       # Number of stores squashed
system.switch_cpus3.lsq0.rescheduledLoads            4                       # Number of loads that were rescheduled
system.switch_cpus3.lsq0.blockedByCache         12313                       # Number of times an access to memory failed due to the cache being blocked
system.switch_cpus3.power_state.pwrStateResidencyTicks::OFF  35150199948                       # Cumulative time (in ticks) in various power states
system.switch_cpus3.rename.squashCycles         34497                       # Number of cycles rename is squashing
system.switch_cpus3.rename.idleCycles          942869                       # Number of cycles rename is idle
system.switch_cpus3.rename.blockCycles       30381949                       # Number of cycles rename is blocking
system.switch_cpus3.rename.serializeStallCycles            0                       # count of cycles rename stalledfor serializing inst
system.switch_cpus3.rename.runCycles          5852110                       # Number of cycles rename is running
system.switch_cpus3.rename.unblockCycles     68047154                       # Number of cycles rename is unblocking
system.switch_cpus3.rename.renamedInsts      44243150                       # Number of instructions processed by rename
system.switch_cpus3.rename.ROBFullEvents       253687                       # Number of times rename has blocked due to ROB full
system.switch_cpus3.rename.IQFullEvents       8701068                       # Number of times rename has blocked due to IQ full
system.switch_cpus3.rename.LQFullEvents      54831700                       # Number of times rename has blocked due to LQ full
system.switch_cpus3.rename.SQFullEvents      12375453                       # Number of times rename has blocked due to SQ full
system.switch_cpus3.rename.renamedOperands     47372725                       # Number of destination operands rename has renamed
system.switch_cpus3.rename.lookups           96717594                       # Number of register rename lookups that rename has made
system.switch_cpus3.rename.intLookups        33001204                       # Number of integer rename lookups
system.switch_cpus3.rename.fpLookups         42810183                       # Number of floating rename lookups
system.switch_cpus3.rename.committedMaps     45262228                       # Number of HB maps that are committed
system.switch_cpus3.rename.undoneMaps         2110487                       # Number of HB maps that are undone due to squashing
system.switch_cpus3.rename.serializing              0                       # count of serializing insts renamed
system.switch_cpus3.rename.tempSerializing            0                       # count of temporary serializing insts renamed
system.switch_cpus3.rename.skidInsts          5586873                       # count of insts added to the skid buffer
system.switch_cpus3.rob.reads               144254311                       # The number of ROB reads
system.switch_cpus3.rob.writes               87633317                       # The number of ROB writes
system.switch_cpus3.thread0.numInsts         23406380                       # Number of Instructions committed
system.switch_cpus3.thread0.numOps           41777644                       # Number of Ops committed
system.switch_cpus3.thread0.numMemRefs              0                       # Number of Memory References
system.voltage_domain.voltage                       1                       # Voltage in Volts

---------- End Simulation Statistics   ----------
