Command line:
./runscript_pride.sh lbm RFM5.BR2.4C 4 2017 --rh_defense --rh_mitigation=RFM --rh_rfm_per_trefi=5 --rh_rfm_blast_radius=2 --rh_rfm_maxacts_per_trefi=79
Global frequency set at 1000000000000 ticks per second
RFM details - rfm_act_threshold: 15, blast_radius: 2, delay_per_rfm: 175000 ps. sample_rate: 0.062500
RH Defense config: RFM, Bus Delay: 0, rfms_per_trefi: 5, rfm_act_threshold: 15, blast_radius: 2,rfm_delay_per_act: 45000 ps.
DRAM config: RowsPerBank: 65536, BanksPerRank: 32, RanksPerChannel: 1
warn: Sockets disabled, not accepting gdb connections
warn: CoherentXBar system.cpu0.mmucache.mmubus has no snooping ports attached!
warn: CoherentXBar system.cpu1.mmucache.mmubus has no snooping ports attached!
warn: CoherentXBar system.cpu2.mmucache.mmubus has no snooping ports attached!
warn: CoherentXBar system.cpu3.mmucache.mmubus has no snooping ports attached!
warn: Checkpoints for file descriptors currently do not work.
warn: Checkpoints for file descriptors currently do not work.
warn: Checkpoints for file descriptors currently do not work.
warn: Checkpoints for file descriptors currently do not work.
gem5 Simulator System.  http://gem5.org
gem5 is copyrighted software; use the --copyright option for details.

gem5 version 20.1.0.5
gem5 compiled Jul 12 2024 12:42:38
gem5 started Jul 22 2024 16:19:36
gem5 executing on a07dda8b130c, pid 88848
command line: /home/user/PrIDE/performance/gem5/build/X86/gem5.opt --outdir=/home/user/PrIDE/performance/gem5/stats/pride_multiprogram_16GBmem_250Mn.SPEC2017.C4/RFM5.BR2.4C/lbm /home/user/PrIDE/performance/gem5/configs/example/se_rq_spec_config_multicore.py --redirects /lib64=/home/utils/gcc-6.2.0/lib64 --benchmark=lbm --benchmark_stdout=/home/user/PrIDE/performance/gem5/stats/pride_multiprogram_16GBmem_250Mn.SPEC2017.C4/RFM5.BR2.4C/lbm/lbm.out --benchmark_stderr=/home/user/PrIDE/performance/gem5/stats/pride_multiprogram_16GBmem_250Mn.SPEC2017.C4/RFM5.BR2.4C/lbm/lbm.err --spec-version=2017 --rh_defense --rh_mitigation=RFM --rh_rfm_per_trefi=5 --rh_rfm_blast_radius=2 --rh_rfm_maxacts_per_trefi=79 --num-cpus=4 --mem-size=16GB --mem-type=DDR5_2400_32x4 --mem-ranks=1 --checkpoint-dir=/home/user/PrIDE/performance/gem5/cpts/multiprogram_16GBmem_25Bn.SPEC2017.C4/lbm-1-ref-x86 --checkpoint-restore=25000000000 --at-instruction --cpu-type DerivO3CPU --caches --l2cache --l1d_size=32kB --l1i_size=32kB --l2_size=256kB --l1d_assoc=8 --l1i_assoc=8 --l2_assoc=16 --maxinsts=250000000 --prog-interval=300Hz

info: Standard input is not a terminal, disabling listeners.
Benchmark- 0   lbm
Selected benchmark
--> lbm
CMD: ['/opt/spec2017/benchspec/CPU/519.lbm_r/run/run_base_refrate_gem5_se-m64.0000/lbm_r_base.gem5_se-m64', '3000', 'reference.dat', '0', '0', '/opt/spec2017/benchspec/CPU/519.lbm_r/run/run_base_refrate_gem5_se-m64.0000/100_100_130_ldc.of']
CWD: /opt/spec2017/benchspec/CPU/519.lbm_r/run/run_base_refrate_gem5_se-m64.0000/
Process stdout file: /home/user/PrIDE/performance/gem5/stats/pride_multiprogram_16GBmem_250Mn.SPEC2017.C4/RFM5.BR2.4C/lbm/lbm.out_0
Process stderr file: /home/user/PrIDE/performance/gem5/stats/pride_multiprogram_16GBmem_250Mn.SPEC2017.C4/RFM5.BR2.4C/lbm/lbm.err_0
Benchmark- 1   lbm
Selected benchmark
--> lbm
CMD: ['/opt/spec2017/benchspec/CPU/519.lbm_r/run/run_base_refrate_gem5_se-m64.0000/lbm_r_base.gem5_se-m64', '3000', 'reference.dat', '0', '0', '/opt/spec2017/benchspec/CPU/519.lbm_r/run/run_base_refrate_gem5_se-m64.0000/100_100_130_ldc.of']
CWD: /opt/spec2017/benchspec/CPU/519.lbm_r/run/run_base_refrate_gem5_se-m64.0000/
Process stdout file: /home/user/PrIDE/performance/gem5/stats/pride_multiprogram_16GBmem_250Mn.SPEC2017.C4/RFM5.BR2.4C/lbm/lbm.out_1
Process stderr file: /home/user/PrIDE/performance/gem5/stats/pride_multiprogram_16GBmem_250Mn.SPEC2017.C4/RFM5.BR2.4C/lbm/lbm.err_1
Benchmark- 2   lbm
Selected benchmark
--> lbm
CMD: ['/opt/spec2017/benchspec/CPU/519.lbm_r/run/run_base_refrate_gem5_se-m64.0000/lbm_r_base.gem5_se-m64', '3000', 'reference.dat', '0', '0', '/opt/spec2017/benchspec/CPU/519.lbm_r/run/run_base_refrate_gem5_se-m64.0000/100_100_130_ldc.of']
CWD: /opt/spec2017/benchspec/CPU/519.lbm_r/run/run_base_refrate_gem5_se-m64.0000/
Process stdout file: /home/user/PrIDE/performance/gem5/stats/pride_multiprogram_16GBmem_250Mn.SPEC2017.C4/RFM5.BR2.4C/lbm/lbm.out_2
Process stderr file: /home/user/PrIDE/performance/gem5/stats/pride_multiprogram_16GBmem_250Mn.SPEC2017.C4/RFM5.BR2.4C/lbm/lbm.err_2
Benchmark- 3   lbm
Selected benchmark
--> lbm
CMD: ['/opt/spec2017/benchspec/CPU/519.lbm_r/run/run_base_refrate_gem5_se-m64.0000/lbm_r_base.gem5_se-m64', '3000', 'reference.dat', '0', '0', '/opt/spec2017/benchspec/CPU/519.lbm_r/run/run_base_refrate_gem5_se-m64.0000/100_100_130_ldc.of']
CWD: /opt/spec2017/benchspec/CPU/519.lbm_r/run/run_base_refrate_gem5_se-m64.0000/
Process stdout file: /home/user/PrIDE/performance/gem5/stats/pride_multiprogram_16GBmem_250Mn.SPEC2017.C4/RFM5.BR2.4C/lbm/lbm.out_3
Process stderr file: /home/user/PrIDE/performance/gem5/stats/pride_multiprogram_16GBmem_250Mn.SPEC2017.C4/RFM5.BR2.4C/lbm/lbm.err_3
Workload-0: 
['/opt/spec2017/benchspec/CPU/519.lbm_r/run/run_base_refrate_gem5_se-m64.0000/lbm_r_base.gem5_se-m64', '3000', 'reference.dat', '0', '0', '/opt/spec2017/benchspec/CPU/519.lbm_r/run/run_base_refrate_gem5_se-m64.0000/100_100_130_ldc.of']
Workload-1: 
['/opt/spec2017/benchspec/CPU/519.lbm_r/run/run_base_refrate_gem5_se-m64.0000/lbm_r_base.gem5_se-m64', '3000', 'reference.dat', '0', '0', '/opt/spec2017/benchspec/CPU/519.lbm_r/run/run_base_refrate_gem5_se-m64.0000/100_100_130_ldc.of']
Workload-2: 
['/opt/spec2017/benchspec/CPU/519.lbm_r/run/run_base_refrate_gem5_se-m64.0000/lbm_r_base.gem5_se-m64', '3000', 'reference.dat', '0', '0', '/opt/spec2017/benchspec/CPU/519.lbm_r/run/run_base_refrate_gem5_se-m64.0000/100_100_130_ldc.of']
Workload-3: 
['/opt/spec2017/benchspec/CPU/519.lbm_r/run/run_base_refrate_gem5_se-m64.0000/lbm_r_base.gem5_se-m64', '3000', 'reference.dat', '0', '0', '/opt/spec2017/benchspec/CPU/519.lbm_r/run/run_base_refrate_gem5_se-m64.0000/100_100_130_ldc.of']
defense_enable:  True  detector:  MG  mitigation:  RFM  threshold:  800
mg_entries:  1700
rfm_maxacts_per_trefi:  79 rfm_per_trefi:  5 rfm_blast_radius:  2
Switch at curTick count:10000
warn: membus.master is deprecated. `master` is now called `mem_side_ports`
warn: No dot file generated. Please install pydot to generate the dot file and pdf.
info: Entering event queue @ 13719052537677.  Starting simulation...
info: Entering event queue @ 13719052547677.  Starting simulation...
warn: PowerState: Already in the requested power state, request ignored
Switched CPUS @ tick 13719052547677
switching cpus
**** REAL SIMULATION ****
info: Entering event queue @ 13719052548000.  Starting simulation...
13722385871010: Event_285: system.switch_cpus3 progress event, total committed:2787930, progress insts committed: 2787930, IPC: 0.278514
13722385871010: Event_284: system.switch_cpus2 progress event, total committed:2795378, progress insts committed: 2795378, IPC: 0.279258
13722385871010: Event_283: system.switch_cpus1 progress event, total committed:2796232, progress insts committed: 2796232, IPC: 0.279344
13722385871010: Event_282: system.switch_cpus0 progress event, total committed:2796239, progress insts committed: 2796239, IPC: 0.279344
13725719204343: Event_282: system.switch_cpus0 progress event, total committed:5311485, progress insts committed: 2515246, IPC: 0.251273
13725719204343: Event_283: system.switch_cpus1 progress event, total committed:5312240, progress insts committed: 2516008, IPC: 0.251349
13725719204343: Event_284: system.switch_cpus2 progress event, total committed:5304744, progress insts committed: 2509366, IPC: 0.250686
13725719204343: Event_285: system.switch_cpus3 progress event, total committed:5296734, progress insts committed: 2508804, IPC: 00.25063
13729052537676: Event_285: system.switch_cpus3 progress event, total committed:7654654, progress insts committed: 2357920, IPC: 0.235556
13729052537676: Event_284: system.switch_cpus2 progress event, total committed:7667400, progress insts committed: 2362656, IPC: 0.236029
13729052537676: Event_283: system.switch_cpus1 progress event, total committed:7673832, progress insts committed: 2361592, IPC: 0.235923
13729052537676: Event_282: system.switch_cpus0 progress event, total committed:7674896, progress insts committed: 2363411, IPC: 0.236105
13732385871009: Event_282: system.switch_cpus0 progress event, total committed:10174752, progress insts committed: 2499856, IPC: 0.249736
13732385871009: Event_283: system.switch_cpus1 progress event, total committed:10174752, progress insts committed: 2500920, IPC: 0.249842
13732385871009: Event_284: system.switch_cpus2 progress event, total committed:10163388, progress insts committed: 2495988, IPC: 0.249349
13732385871009: Event_285: system.switch_cpus3 progress event, total committed:10137030, progress insts committed: 2482376, IPC: 0.247989
13735719204342: Event_285: system.switch_cpus3 progress event, total committed:12461020, progress insts committed: 2323990, IPC: 0.232167
13735719204342: Event_284: system.switch_cpus2 progress event, total committed:12484670, progress insts committed: 2321282, IPC: 0.231896
13735719204342: Event_283: system.switch_cpus1 progress event, total committed:12493299, progress insts committed: 2318547, IPC: 0.231623
13735719204342: Event_282: system.switch_cpus0 progress event, total committed:12492235, progress insts committed: 2317483, IPC: 0.231517
13739052537675: Event_282: system.switch_cpus0 progress event, total committed:14997862, progress insts committed: 2505627, IPC: 0.250312
13739052537675: Event_283: system.switch_cpus1 progress event, total committed:14998639, progress insts committed: 2505340, IPC: 0.250283
13739052537675: Event_284: system.switch_cpus2 progress event, total committed:14983397, progress insts committed: 2498727, IPC: 0.249623
13739052537675: Event_285: system.switch_cpus3 progress event, total committed:14961572, progress insts committed: 2500552, IPC: 0.249805
13742385871008: Event_285: system.switch_cpus3 progress event, total committed:17304194, progress insts committed: 2342622, IPC: 0.234028
13742385871008: Event_284: system.switch_cpus2 progress event, total committed:17321562, progress insts committed: 2338165, IPC: 0.233583
13742385871008: Event_283: system.switch_cpus1 progress event, total committed:17355078, progress insts committed: 2356439, IPC: 0.235408
13742385871008: Event_282: system.switch_cpus0 progress event, total committed:17353201, progress insts committed: 2355339, IPC: 0.235298
13745719204341: Event_282: system.switch_cpus0 progress event, total committed:19873300, progress insts committed: 2520099, IPC: 0.251758
13745719204341: Event_283: system.switch_cpus1 progress event, total committed:19874074, progress insts committed: 2518996, IPC: 0.251648
13745719204341: Event_284: system.switch_cpus2 progress event, total committed:19850879, progress insts committed: 2529317, IPC: 0.252679
13745719204341: Event_285: system.switch_cpus3 progress event, total committed:19830871, progress insts committed: 2526677, IPC: 0.252415
13749052537674: Event_285: system.switch_cpus3 progress event, total committed:22185296, progress insts committed: 2354425, IPC: 0.235207
13749052537674: Event_284: system.switch_cpus2 progress event, total committed:22197777, progress insts committed: 2346898, IPC: 0.234455
13749052537674: Event_283: system.switch_cpus1 progress event, total committed:22231731, progress insts committed: 2357657, IPC: 00.23553
13749052537674: Event_282: system.switch_cpus0 progress event, total committed:22230630, progress insts committed: 2357330, IPC: 0.235497
13752385871007: Event_282: system.switch_cpus0 progress event, total committed:24723620, progress insts committed: 2492990, IPC: 00.24905
13752385871007: Event_283: system.switch_cpus1 progress event, total committed:24723330, progress insts committed: 2491599, IPC: 0.248911
13752385871007: Event_284: system.switch_cpus2 progress event, total committed:24681478, progress insts committed: 2483701, IPC: 0.248122
13752385871007: Event_285: system.switch_cpus3 progress event, total committed:24676400, progress insts committed: 2491104, IPC: 0.248861
13755719204340: Event_285: system.switch_cpus3 progress event, total committed:27168447, progress insts committed: 2492047, IPC: 0.248955
13755719204340: Event_284: system.switch_cpus2 progress event, total committed:27169504, progress insts committed: 2488026, IPC: 0.248554
13755719204340: Event_283: system.switch_cpus1 progress event, total committed:27215905, progress insts committed: 2492575, IPC: 0.249008
13755719204340: Event_282: system.switch_cpus0 progress event, total committed:27215128, progress insts committed: 2491508, IPC: 0.248902
13759052537673: Event_282: system.switch_cpus0 progress event, total committed:29538828, progress insts committed: 2323700, IPC: 0.232138
13759052537673: Event_283: system.switch_cpus1 progress event, total committed:29552744, progress insts committed: 2336839, IPC: 00.23345
13759052537673: Event_284: system.switch_cpus2 progress event, total committed:29501230, progress insts committed: 2331726, IPC: 0.232939
13759052537673: Event_285: system.switch_cpus3 progress event, total committed:29501134, progress insts committed: 2332687, IPC: 0.233035
13762385871006: Event_285: system.switch_cpus3 progress event, total committed:32013554, progress insts committed: 2512420, IPC: 0.250991
13762385871006: Event_284: system.switch_cpus2 progress event, total committed:32013881, progress insts committed: 2512651, IPC: 0.251014
13762385871006: Event_283: system.switch_cpus1 progress event, total committed:32060948, progress insts committed: 2508204, IPC: 00.25057
13762385871006: Event_282: system.switch_cpus0 progress event, total committed:32046296, progress insts committed: 2507468, IPC: 0.250496
13765719204339: Event_282: system.switch_cpus0 progress event, total committed:34387134, progress insts committed: 2340838, IPC: 00.23385
13765719204339: Event_283: system.switch_cpus1 progress event, total committed:34410252, progress insts committed: 2349304, IPC: 0.234695
13765719204339: Event_284: system.switch_cpus2 progress event, total committed:34371389, progress insts committed: 2357508, IPC: 0.235515
13765719204339: Event_285: system.switch_cpus3 progress event, total committed:34367581, progress insts committed: 2354027, IPC: 0.235167
13769052537672: Event_285: system.switch_cpus3 progress event, total committed:36879389, progress insts committed: 2511808, IPC: 00.25093
13769052537672: Event_284: system.switch_cpus2 progress event, total committed:36881960, progress insts committed: 2510571, IPC: 0.250806
13769052537672: Event_283: system.switch_cpus1 progress event, total committed:36925171, progress insts committed: 2514919, IPC: 00.25124
13769052537672: Event_282: system.switch_cpus0 progress event, total committed:36902050, progress insts committed: 2514916, IPC: 00.25124
13772385871005: Event_282: system.switch_cpus0 progress event, total committed:39242530, progress insts committed: 2340480, IPC: 0.233814
13772385871005: Event_283: system.switch_cpus1 progress event, total committed:39256965, progress insts committed: 2331794, IPC: 0.232946
13772385871005: Event_284: system.switch_cpus2 progress event, total committed:39228652, progress insts committed: 2346692, IPC: 0.234435
13772385871005: Event_285: system.switch_cpus3 progress event, total committed:39217770, progress insts committed: 2338381, IPC: 0.233604
13775719204338: Event_285: system.switch_cpus3 progress event, total committed:41748114, progress insts committed: 2530344, IPC: 0.252781
13775719204338: Event_284: system.switch_cpus2 progress event, total committed:41750530, progress insts committed: 2521878, IPC: 0.251936
13775719204338: Event_283: system.switch_cpus1 progress event, total committed:41785175, progress insts committed: 2528210, IPC: 0.252568
13775719204338: Event_282: system.switch_cpus0 progress event, total committed:41766501, progress insts committed: 2523971, IPC: 0.252145
13779052537671: Event_282: system.switch_cpus0 progress event, total committed:44115666, progress insts committed: 2349165, IPC: 0.234682
13779052537671: Event_283: system.switch_cpus1 progress event, total committed:44133458, progress insts committed: 2348283, IPC: 0.234593
13779052537671: Event_284: system.switch_cpus2 progress event, total committed:44108345, progress insts committed: 2357815, IPC: 0.235546
13779052537671: Event_285: system.switch_cpus3 progress event, total committed:44101972, progress insts committed: 2353858, IPC: 00.23515
13782385871004: Event_285: system.switch_cpus3 progress event, total committed:46599612, progress insts committed: 2497640, IPC: 0.249514
13782385871004: Event_284: system.switch_cpus2 progress event, total committed:46607837, progress insts committed: 2499492, IPC: 0.249699
13782385871004: Event_283: system.switch_cpus1 progress event, total committed:46632710, progress insts committed: 2499252, IPC: 0.249675
13782385871004: Event_282: system.switch_cpus0 progress event, total committed:46620682, progress insts committed: 2505016, IPC: 0.250251
13785719204337: Event_282: system.switch_cpus0 progress event, total committed:48965986, progress insts committed: 2345304, IPC: 0.234296
13785719204337: Event_283: system.switch_cpus1 progress event, total committed:48981946, progress insts committed: 2349236, IPC: 0.234689
13785719204337: Event_284: system.switch_cpus2 progress event, total committed:48946553, progress insts committed: 2338716, IPC: 0.233638
13785719204337: Event_285: system.switch_cpus3 progress event, total committed:48938032, progress insts committed: 2338420, IPC: 0.233608
13789052537670: Event_285: system.switch_cpus3 progress event, total committed:51447631, progress insts committed: 2509599, IPC: 0.250709
13789052537670: Event_284: system.switch_cpus2 progress event, total committed:51456962, progress insts committed: 2510409, IPC: 00.25079
13789052537670: Event_283: system.switch_cpus1 progress event, total committed:51491137, progress insts committed: 2509191, IPC: 0.250668
13789052537670: Event_282: system.switch_cpus0 progress event, total committed:51475040, progress insts committed: 2509054, IPC: 0.250654
13792385871003: Event_282: system.switch_cpus0 progress event, total committed:53831848, progress insts committed: 2356808, IPC: 0.235445
13792385871003: Event_283: system.switch_cpus1 progress event, total committed:53842488, progress insts committed: 2351351, IPC: 000.2349
13792385871003: Event_284: system.switch_cpus2 progress event, total committed:53817194, progress insts committed: 2360232, IPC: 0.235787
13792385871003: Event_285: system.switch_cpus3 progress event, total committed:53806312, progress insts committed: 2358681, IPC: 0.235632
13795719204336: Event_285: system.switch_cpus3 progress event, total committed:56310322, progress insts committed: 2504010, IPC: 0.250151
13795719204336: Event_284: system.switch_cpus2 progress event, total committed:56320696, progress insts committed: 2503502, IPC: 000.2501
13795719204336: Event_283: system.switch_cpus1 progress event, total committed:56345410, progress insts committed: 2502922, IPC: 0.250042
13795719204336: Event_282: system.switch_cpus0 progress event, total committed:56333880, progress insts committed: 2502032, IPC: 0.249953
13799052537669: Event_282: system.switch_cpus0 progress event, total committed:58672356, progress insts committed: 2338476, IPC: 0.233614
13799052537669: Event_283: system.switch_cpus1 progress event, total committed:58676140, progress insts committed: 2330730, IPC: 00.23284
13799052537669: Event_284: system.switch_cpus2 progress event, total committed:58660816, progress insts committed: 2340120, IPC: 0.233778
13799052537669: Event_285: system.switch_cpus3 progress event, total committed:58650248, progress insts committed: 2339926, IPC: 0.233759
13802385871002: Event_285: system.switch_cpus3 progress event, total committed:61133489, progress insts committed: 2483241, IPC: 0.248076
13802385871002: Event_284: system.switch_cpus2 progress event, total committed:61143884, progress insts committed: 2483068, IPC: 0.248058
13802385871002: Event_283: system.switch_cpus1 progress event, total committed:61171793, progress insts committed: 2495653, IPC: 0.249316
13802385871002: Event_282: system.switch_cpus0 progress event, total committed:61158749, progress insts committed: 2486393, IPC: 0.248391
13805719204335: Event_282: system.switch_cpus0 progress event, total committed:63506534, progress insts committed: 2347785, IPC: 0.234544
13805719204335: Event_283: system.switch_cpus1 progress event, total committed:63517961, progress insts committed: 2346168, IPC: 0.234382
13805719204335: Event_284: system.switch_cpus2 progress event, total committed:63492957, progress insts committed: 2349073, IPC: 0.234672
13805719204335: Event_285: system.switch_cpus3 progress event, total committed:63490756, progress insts committed: 2357267, IPC: 0.235491
13809052537668: Event_285: system.switch_cpus3 progress event, total committed:65998652, progress insts committed: 2507896, IPC: 0.250539
13809052537668: Event_284: system.switch_cpus2 progress event, total committed:66002553, progress insts committed: 2509596, IPC: 0.250709
13809052537668: Event_283: system.switch_cpus1 progress event, total committed:66025174, progress insts committed: 2507213, IPC: 0.250471
13809052537668: Event_282: system.switch_cpus0 progress event, total committed:66015066, progress insts committed: 2508532, IPC: 0.250602
13812385871001: Event_282: system.switch_cpus0 progress event, total committed:68360060, progress insts committed: 2344994, IPC: 0.234265
13812385871001: Event_283: system.switch_cpus1 progress event, total committed:68360074, progress insts committed: 2334900, IPC: 0.233257
13812385871001: Event_284: system.switch_cpus2 progress event, total committed:68359874, progress insts committed: 2357321, IPC: 0.235496
13812385871001: Event_285: system.switch_cpus3 progress event, total committed:68359720, progress insts committed: 2361068, IPC: 0.235871
13815719204334: Event_285: system.switch_cpus3 progress event, total committed:70792920, progress insts committed: 2433200, IPC: 0.243077
13815719204334: Event_284: system.switch_cpus2 progress event, total committed:70805688, progress insts committed: 2445814, IPC: 0.244337
13815719204334: Event_283: system.switch_cpus1 progress event, total committed:70820940, progress insts committed: 2460866, IPC: 0.245841
13815719204334: Event_282: system.switch_cpus0 progress event, total committed:70818570, progress insts committed: 2458510, IPC: 0.245605
13819052537667: Event_282: system.switch_cpus0 progress event, total committed:73291057, progress insts committed: 2472487, IPC: 0.247001
13819052537667: Event_283: system.switch_cpus1 progress event, total committed:73293472, progress insts committed: 2472532, IPC: 0.247006
13819052537667: Event_284: system.switch_cpus2 progress event, total committed:73272761, progress insts committed: 2467073, IPC: 0.246461
13819052537667: Event_285: system.switch_cpus3 progress event, total committed:73260865, progress insts committed: 2467945, IPC: 0.246548
13822385871000: Event_285: system.switch_cpus3 progress event, total committed:75581656, progress insts committed: 2320791, IPC: 0.231847
13822385871000: Event_284: system.switch_cpus2 progress event, total committed:75584720, progress insts committed: 2311959, IPC: 0.230965
13822385871000: Event_283: system.switch_cpus1 progress event, total committed:75620636, progress insts committed: 2327164, IPC: 0.232484
13822385871000: Event_282: system.switch_cpus0 progress event, total committed:75617138, progress insts committed: 2326081, IPC: 0.232375
13825719204333: Event_282: system.switch_cpus0 progress event, total committed:78096154, progress insts committed: 2479016, IPC: 0.247654
13825719204333: Event_283: system.switch_cpus1 progress event, total committed:78098817, progress insts committed: 2478181, IPC: 00.24757
13825719204333: Event_284: system.switch_cpus2 progress event, total committed:78070262, progress insts committed: 2485542, IPC: 0.248306
13825719204333: Event_285: system.switch_cpus3 progress event, total committed:78056672, progress insts committed: 2475016, IPC: 0.247254
13829052537666: Event_285: system.switch_cpus3 progress event, total committed:80370554, progress insts committed: 2313882, IPC: 0.231157
13829052537666: Event_284: system.switch_cpus2 progress event, total committed:80372392, progress insts committed: 2302130, IPC: 0.229983
13829052537666: Event_283: system.switch_cpus1 progress event, total committed:80414305, progress insts committed: 2315488, IPC: 0.231317
13829052537666: Event_282: system.switch_cpus0 progress event, total committed:80412696, progress insts committed: 2316542, IPC: 0.231423
13832385870999: Event_282: system.switch_cpus0 progress event, total committed:82904335, progress insts committed: 2491639, IPC: 0.248915
13832385870999: Event_283: system.switch_cpus1 progress event, total committed:82905928, progress insts committed: 2491623, IPC: 0.248913
13832385870999: Event_284: system.switch_cpus2 progress event, total committed:82857448, progress insts committed: 2485056, IPC: 0.248257
13832385870999: Event_285: system.switch_cpus3 progress event, total committed:82857217, progress insts committed: 2486663, IPC: 0.248418
13835719204332: Event_285: system.switch_cpus3 progress event, total committed:85182570, progress insts committed: 2325353, IPC: 0.232303
13835719204332: Event_284: system.switch_cpus2 progress event, total committed:85187071, progress insts committed: 2329623, IPC: 0.232729
13835719204332: Event_283: system.switch_cpus1 progress event, total committed:85229210, progress insts committed: 2323282, IPC: 0.232096
13835719204332: Event_282: system.switch_cpus0 progress event, total committed:85230032, progress insts committed: 2325697, IPC: 0.232337
13839052537665: Event_282: system.switch_cpus0 progress event, total committed:87706249, progress insts committed: 2476217, IPC: 0.247374
13839052537665: Event_283: system.switch_cpus1 progress event, total committed:87706775, progress insts committed: 2477565, IPC: 0.247509
13839052537665: Event_284: system.switch_cpus2 progress event, total committed:87659600, progress insts committed: 2472529, IPC: 0.247006
13839052537665: Event_285: system.switch_cpus3 progress event, total committed:87659600, progress insts committed: 2477030, IPC: 0.247455
13842385870998: Event_285: system.switch_cpus3 progress event, total committed:90006535, progress insts committed: 2346935, IPC: 0.234459
13842385870998: Event_284: system.switch_cpus2 progress event, total committed:90006259, progress insts committed: 2346659, IPC: 0.234431
13842385870998: Event_283: system.switch_cpus1 progress event, total committed:90057513, progress insts committed: 2350738, IPC: 0.234839
13842385870998: Event_282: system.switch_cpus0 progress event, total committed:90039030, progress insts committed: 2332781, IPC: 0.233045
13845719204331: Event_282: system.switch_cpus0 progress event, total committed:92505440, progress insts committed: 2466410, IPC: 0.246394
13845719204331: Event_283: system.switch_cpus1 progress event, total committed:92544850, progress insts committed: 2487337, IPC: 0.248485
13845719204331: Event_284: system.switch_cpus2 progress event, total committed:92494087, progress insts committed: 2487828, IPC: 0.248534
13845719204331: Event_285: system.switch_cpus3 progress event, total committed:92494111, progress insts committed: 2487576, IPC: 0.248509
13849052537664: Event_285: system.switch_cpus3 progress event, total committed:94765766, progress insts committed: 2271655, IPC: 0.226938
13849052537664: Event_284: system.switch_cpus2 progress event, total committed:94765524, progress insts committed: 2271437, IPC: 0.226917
13849052537664: Event_283: system.switch_cpus1 progress event, total committed:94804682, progress insts committed: 2259832, IPC: 0.225757
13849052537664: Event_282: system.switch_cpus0 progress event, total committed:94776428, progress insts committed: 2270988, IPC: 0.226872
13852385870997: Event_282: system.switch_cpus0 progress event, total committed:97224708, progress insts committed: 2448280, IPC: 0.244583
13852385870997: Event_283: system.switch_cpus1 progress event, total committed:97251598, progress insts committed: 2446916, IPC: 0.244447
13852385870997: Event_284: system.switch_cpus2 progress event, total committed:97214371, progress insts committed: 2448847, IPC: 00.24464
13852385870997: Event_285: system.switch_cpus3 progress event, total committed:97215667, progress insts committed: 2449901, IPC: 0.244745
13855719204330: Event_285: system.switch_cpus3 progress event, total committed:99564126, progress insts committed: 2348459, IPC: 0.234611
13855719204330: Event_284: system.switch_cpus2 progress event, total committed:99564371, progress insts committed: 2350000, IPC: 0.234765
13855719204330: Event_283: system.switch_cpus1 progress event, total committed:99582328, progress insts committed: 2330730, IPC: 00.23284
13855719204330: Event_282: system.switch_cpus0 progress event, total committed:99570832, progress insts committed: 2346124, IPC: 0.234378
13859052537663: Event_282: system.switch_cpus0 progress event, total committed:102080993, progress insts committed: 2510161, IPC: 0.250765
13859052537663: Event_283: system.switch_cpus1 progress event, total committed:102094492, progress insts committed: 2512164, IPC: 0.250965
13859052537663: Event_284: system.switch_cpus2 progress event, total committed:102078702, progress insts committed: 2514331, IPC: 0.251182
13859052537663: Event_285: system.switch_cpus3 progress event, total committed:102078798, progress insts committed: 2514672, IPC: 0.251216
13862385870996: Event_285: system.switch_cpus3 progress event, total committed:104392990, progress insts committed: 2314192, IPC: 0.231188
13862385870996: Event_284: system.switch_cpus2 progress event, total committed:104400973, progress insts committed: 2322271, IPC: 0.231995
13862385870996: Event_283: system.switch_cpus1 progress event, total committed:104417752, progress insts committed: 2323260, IPC: 0.232094
13862385870996: Event_282: system.switch_cpus0 progress event, total committed:104408708, progress insts committed: 2327715, IPC: 0.232539
13865719204329: Event_282: system.switch_cpus0 progress event, total committed:106898620, progress insts committed: 2489912, IPC: 0.248742
13865719204329: Event_283: system.switch_cpus1 progress event, total committed:106904182, progress insts committed: 2486430, IPC: 0.248394
13865719204329: Event_284: system.switch_cpus2 progress event, total committed:106897198, progress insts committed: 2496225, IPC: 0.249373
13865719204329: Event_285: system.switch_cpus3 progress event, total committed:106889172, progress insts committed: 2496182, IPC: 0.249369
13869052537662: Event_285: system.switch_cpus3 progress event, total committed:109366851, progress insts committed: 2477679, IPC: 00.24752
13869052537662: Event_284: system.switch_cpus2 progress event, total committed:109376714, progress insts committed: 2479516, IPC: 0.247704
13869052537662: Event_283: system.switch_cpus1 progress event, total committed:109394270, progress insts committed: 2490088, IPC: 00.24876
13869052537662: Event_282: system.switch_cpus0 progress event, total committed:109387978, progress insts committed: 2489358, IPC: 0.248687
13872385870995: Event_282: system.switch_cpus0 progress event, total committed:111740960, progress insts committed: 2352982, IPC: 0.235063
13872385870995: Event_283: system.switch_cpus1 progress event, total committed:111752370, progress insts committed: 2358100, IPC: 0.235574
13872385870995: Event_284: system.switch_cpus2 progress event, total committed:111734354, progress insts committed: 2357640, IPC: 0.235528
13872385870995: Event_285: system.switch_cpus3 progress event, total committed:111725000, progress insts committed: 2358149, IPC: 0.235579
13875719204328: Event_285: system.switch_cpus3 progress event, total committed:114247364, progress insts committed: 2522364, IPC: 0.251984
13875719204328: Event_284: system.switch_cpus2 progress event, total committed:114257472, progress insts committed: 2523118, IPC: 0.252059
13875719204328: Event_283: system.switch_cpus1 progress event, total committed:114273432, progress insts committed: 2521062, IPC: 0.251854
13875719204328: Event_282: system.switch_cpus0 progress event, total committed:114265694, progress insts committed: 2524734, IPC: 0.252221
13879052537661: Event_282: system.switch_cpus0 progress event, total committed:116616398, progress insts committed: 2350704, IPC: 0.234835
13879052537661: Event_283: system.switch_cpus1 progress event, total committed:116625442, progress insts committed: 2352010, IPC: 0.234966
13879052537661: Event_284: system.switch_cpus2 progress event, total committed:116606290, progress insts committed: 2348818, IPC: 0.234647
13879052537661: Event_285: system.switch_cpus3 progress event, total committed:116594296, progress insts committed: 2346932, IPC: 0.234459
13882385870994: Event_285: system.switch_cpus3 progress event, total committed:119101232, progress insts committed: 2506936, IPC: 0.250443
13882385870994: Event_284: system.switch_cpus2 progress event, total committed:119111701, progress insts committed: 2505411, IPC: 0.250291
13882385870994: Event_283: system.switch_cpus1 progress event, total committed:119129186, progress insts committed: 2503744, IPC: 0.250124
13882385870994: Event_282: system.switch_cpus0 progress event, total committed:119121662, progress insts committed: 2505264, IPC: 0.250276
13885719204327: Event_282: system.switch_cpus0 progress event, total committed:121456078, progress insts committed: 2334416, IPC: 0.233208
13885719204327: Event_283: system.switch_cpus1 progress event, total committed:121456924, progress insts committed: 2327738, IPC: 0.232541
13885719204327: Event_284: system.switch_cpus2 progress event, total committed:121444374, progress insts committed: 2332673, IPC: 0.233034
13885719204327: Event_285: system.switch_cpus3 progress event, total committed:121434798, progress insts committed: 2333566, IPC: 0.233123
13889052537660: Event_285: system.switch_cpus3 progress event, total committed:123915679, progress insts committed: 2480881, IPC: 00.24784
13889052537660: Event_284: system.switch_cpus2 progress event, total committed:123924178, progress insts committed: 2479804, IPC: 0.247732
13889052537660: Event_283: system.switch_cpus1 progress event, total committed:123944394, progress insts committed: 2487470, IPC: 0.248498
13889052537660: Event_282: system.switch_cpus0 progress event, total committed:123936946, progress insts committed: 2480868, IPC: 0.247839
13892385870993: Event_282: system.switch_cpus0 progress event, total committed:126244686, progress insts committed: 2307740, IPC: 0.230543
13892385870993: Event_283: system.switch_cpus1 progress event, total committed:126248942, progress insts committed: 2304548, IPC: 0.230224
13892385870993: Event_284: system.switch_cpus2 progress event, total committed:126230359, progress insts committed: 2306181, IPC: 0.230387
13892385870993: Event_285: system.switch_cpus3 progress event, total committed:126228439, progress insts committed: 2312760, IPC: 0.231045
13895719204326: Event_285: system.switch_cpus3 progress event, total committed:128687919, progress insts committed: 2459480, IPC: 0.245702
13895719204326: Event_284: system.switch_cpus2 progress event, total committed:128690566, progress insts committed: 2460207, IPC: 0.245775
13895719204326: Event_283: system.switch_cpus1 progress event, total committed:128707884, progress insts committed: 2458942, IPC: 0.245648
13895719204326: Event_282: system.switch_cpus0 progress event, total committed:128701223, progress insts committed: 2456537, IPC: 0.245408
13899052537659: Event_282: system.switch_cpus0 progress event, total committed:131037687, progress insts committed: 2336464, IPC: 0.233413
13899052537659: Event_283: system.switch_cpus1 progress event, total committed:131041482, progress insts committed: 2333598, IPC: 0.233126
13899052537659: Event_284: system.switch_cpus2 progress event, total committed:131037149, progress insts committed: 2346583, IPC: 0.234424
13899052537659: Event_285: system.switch_cpus3 progress event, total committed:131022540, progress insts committed: 2334621, IPC: 0.233229
13902385870992: Event_285: system.switch_cpus3 progress event, total committed:133525456, progress insts committed: 2502916, IPC: 0.250041
13902385870992: Event_284: system.switch_cpus2 progress event, total committed:133549869, progress insts committed: 2512720, IPC: 0.251021
13902385870992: Event_283: system.switch_cpus1 progress event, total committed:133551647, progress insts committed: 2510165, IPC: 0.250765
13902385870992: Event_282: system.switch_cpus0 progress event, total committed:133549880, progress insts committed: 2512193, IPC: 0.250968
13905719204325: Event_282: system.switch_cpus0 progress event, total committed:135861515, progress insts committed: 2311635, IPC: 0.230932
13905719204325: Event_283: system.switch_cpus1 progress event, total committed:135861802, progress insts committed: 2310155, IPC: 0.230784
13905719204325: Event_284: system.switch_cpus2 progress event, total committed:135859560, progress insts committed: 2309691, IPC: 0.230738
13905719204325: Event_285: system.switch_cpus3 progress event, total committed:135826286, progress insts committed: 2300830, IPC: 0.229853
13909052537658: Event_285: system.switch_cpus3 progress event, total committed:138242228, progress insts committed: 2415942, IPC: 0.241353
13909052537658: Event_284: system.switch_cpus2 progress event, total committed:138263906, progress insts committed: 2404346, IPC: 0.240194
13909052537658: Event_283: system.switch_cpus1 progress event, total committed:138285518, progress insts committed: 2423716, IPC: 0.242129
13909052537658: Event_282: system.switch_cpus0 progress event, total committed:138284454, progress insts committed: 2422939, IPC: 0.242052
13912385870991: Event_282: system.switch_cpus0 progress event, total committed:140607826, progress insts committed: 2323372, IPC: 0.232105
13912385870991: Event_283: system.switch_cpus1 progress event, total committed:140618262, progress insts committed: 2332744, IPC: 0.233041
13912385870991: Event_284: system.switch_cpus2 progress event, total committed:140583150, progress insts committed: 2319244, IPC: 0.231692
13912385870991: Event_285: system.switch_cpus3 progress event, total committed:140568395, progress insts committed: 2326167, IPC: 0.232384
13915719204324: Event_285: system.switch_cpus3 progress event, total committed:143093523, progress insts committed: 2525128, IPC: 00.25226
13915719204324: Event_284: system.switch_cpus2 progress event, total committed:143117763, progress insts committed: 2534613, IPC: 0.253208
13915719204324: Event_283: system.switch_cpus1 progress event, total committed:143144996, progress insts committed: 2526734, IPC: 0.252421
13915719204324: Event_282: system.switch_cpus0 progress event, total committed:143134430, progress insts committed: 2526604, IPC: 0.252408
13919052537657: Event_282: system.switch_cpus0 progress event, total committed:145510182, progress insts committed: 2375752, IPC: 0.237338
13919052537657: Event_283: system.switch_cpus1 progress event, total committed:145531262, progress insts committed: 2386266, IPC: 0.238388
13919052537657: Event_284: system.switch_cpus2 progress event, total committed:145496656, progress insts committed: 2378893, IPC: 0.237651
13919052537657: Event_285: system.switch_cpus3 progress event, total committed:145472133, progress insts committed: 2378610, IPC: 0.237623
13922385870990: Event_285: system.switch_cpus3 progress event, total committed:147973749, progress insts committed: 2501616, IPC: 0.249911
13922385870990: Event_284: system.switch_cpus2 progress event, total committed:148001945, progress insts committed: 2505289, IPC: 0.250278
13922385870990: Event_283: system.switch_cpus1 progress event, total committed:148036394, progress insts committed: 2505132, IPC: 0.250263
13922385870990: Event_282: system.switch_cpus0 progress event, total committed:148011632, progress insts committed: 2501450, IPC: 0.249895
13925719204323: Event_282: system.switch_cpus0 progress event, total committed:150460812, progress insts committed: 2449180, IPC: 0.244673
13925719204323: Event_283: system.switch_cpus1 progress event, total committed:150461096, progress insts committed: 2424702, IPC: 0.242228
13925719204323: Event_284: system.switch_cpus2 progress event, total committed:150460640, progress insts committed: 2458695, IPC: 0.245624
13925719204323: Event_285: system.switch_cpus3 progress event, total committed:150460328, progress insts committed: 2486579, IPC: 0.248409
13929052537656: Event_285: system.switch_cpus3 progress event, total committed:152713189, progress insts committed: 2252861, IPC: 0.225061
13929052537656: Event_284: system.switch_cpus2 progress event, total committed:152736703, progress insts committed: 2276063, IPC: 0.227379
13929052537656: Event_283: system.switch_cpus1 progress event, total committed:152771230, progress insts committed: 2310134, IPC: 0.230782
13929052537656: Event_282: system.switch_cpus0 progress event, total committed:152749654, progress insts committed: 2288842, IPC: 0.228655
13932385870989: Event_282: system.switch_cpus0 progress event, total committed:155187137, progress insts committed: 2437483, IPC: 0.243505
13932385870989: Event_283: system.switch_cpus1 progress event, total committed:155214049, progress insts committed: 2442819, IPC: 0.244038
13932385870989: Event_284: system.switch_cpus2 progress event, total committed:155174871, progress insts committed: 2438168, IPC: 0.243573
13932385870989: Event_285: system.switch_cpus3 progress event, total committed:155150615, progress insts committed: 2437426, IPC: 0.243499
13935719204322: Event_285: system.switch_cpus3 progress event, total committed:157445816, progress insts committed: 2295201, IPC: 0.229291
13935719204322: Event_284: system.switch_cpus2 progress event, total committed:157480154, progress insts committed: 2305283, IPC: 0.230298
13935719204322: Event_283: system.switch_cpus1 progress event, total committed:157511379, progress insts committed: 2297330, IPC: 0.229503
13935719204322: Event_282: system.switch_cpus0 progress event, total committed:157489021, progress insts committed: 2301884, IPC: 0.229958
13939052537655: Event_282: system.switch_cpus0 progress event, total committed:159969002, progress insts committed: 2479981, IPC: 00.24775
13939052537655: Event_283: system.switch_cpus1 progress event, total committed:159992120, progress insts committed: 2480741, IPC: 0.247826
13939052537655: Event_284: system.switch_cpus2 progress event, total committed:159948509, progress insts committed: 2468355, IPC: 0.246589
13939052537655: Event_285: system.switch_cpus3 progress event, total committed:159928300, progress insts committed: 2482484, IPC: 0000.248
13942385870988: Event_285: system.switch_cpus3 progress event, total committed:162251284, progress insts committed: 2322984, IPC: 0.232066
13942385870988: Event_284: system.switch_cpus2 progress event, total committed:162277274, progress insts committed: 2328765, IPC: 0.232644
13942385870988: Event_283: system.switch_cpus1 progress event, total committed:162310372, progress insts committed: 2318252, IPC: 0.231593
13942385870988: Event_282: system.switch_cpus0 progress event, total committed:162301746, progress insts committed: 2332744, IPC: 0.233041
13945719204321: Event_282: system.switch_cpus0 progress event, total committed:164811630, progress insts committed: 2509884, IPC: 0.250737
13945719204321: Event_283: system.switch_cpus1 progress event, total committed:164828722, progress insts committed: 2518350, IPC: 0.251583
13945719204321: Event_284: system.switch_cpus2 progress event, total committed:164795624, progress insts committed: 2518350, IPC: 0.251583
13945719204321: Event_285: system.switch_cpus3 progress event, total committed:164765835, progress insts committed: 2514551, IPC: 0.251204
13949052537654: Event_285: system.switch_cpus3 progress event, total committed:166908770, progress insts committed: 2142935, IPC: 0.214079
13949052537654: Event_284: system.switch_cpus2 progress event, total committed:166932510, progress insts committed: 2136886, IPC: 0.213475
13949052537654: Event_283: system.switch_cpus1 progress event, total committed:166961975, progress insts committed: 2133253, IPC: 0.213112
13949052537654: Event_282: system.switch_cpus0 progress event, total committed:166952414, progress insts committed: 2140784, IPC: 0.213864
13952385870987: Event_282: system.switch_cpus0 progress event, total committed:169028482, progress insts committed: 2076068, IPC: 0.207399
13952385870987: Event_283: system.switch_cpus1 progress event, total committed:169050660, progress insts committed: 2088685, IPC: 00.20866
13952385870987: Event_284: system.switch_cpus2 progress event, total committed:169018474, progress insts committed: 2085964, IPC: 0.208388
13952385870987: Event_285: system.switch_cpus3 progress event, total committed:168990824, progress insts committed: 2082054, IPC: 0.207997
13955719204320: Event_285: system.switch_cpus3 progress event, total committed:170353176, progress insts committed: 1362352, IPC: 0.136099
13955719204320: Event_284: system.switch_cpus2 progress event, total committed:170353497, progress insts committed: 1335023, IPC: 0.133369
13955719204320: Event_283: system.switch_cpus1 progress event, total committed:170353994, progress insts committed: 1303334, IPC: 0.130203
13955719204320: Event_282: system.switch_cpus0 progress event, total committed:170353724, progress insts committed: 1325242, IPC: 0.132392
13959052537653: Event_282: system.switch_cpus0 progress event, total committed:170525906, progress insts committed: 172182, IPC: 0.017201
13959052537653: Event_283: system.switch_cpus1 progress event, total committed:170526248, progress insts committed: 172254, IPC: 0.0172082
13959052537653: Event_284: system.switch_cpus2 progress event, total committed:170525707, progress insts committed: 172210, IPC: 0.0172038
13959052537653: Event_285: system.switch_cpus3 progress event, total committed:170525373, progress insts committed: 172197, IPC: 0.0172025
13962385870986: Event_285: system.switch_cpus3 progress event, total committed:170699138, progress insts committed: 173765, IPC: 0.0173591
13962385870986: Event_284: system.switch_cpus2 progress event, total committed:170699422, progress insts committed: 173715, IPC: 0.0173541
13962385870986: Event_283: system.switch_cpus1 progress event, total committed:170699943, progress insts committed: 173695, IPC: 0.0173521
13962385870986: Event_282: system.switch_cpus0 progress event, total committed:170699642, progress insts committed: 173736, IPC: 0.0173562
13965719204319: Event_282: system.switch_cpus0 progress event, total committed:170870538, progress insts committed: 170896, IPC: 0.0170725
13965719204319: Event_283: system.switch_cpus1 progress event, total committed:170870776, progress insts committed: 170833, IPC: 0.0170662
13965719204319: Event_284: system.switch_cpus2 progress event, total committed:170870359, progress insts committed: 170937, IPC: 0.0170766
13965719204319: Event_285: system.switch_cpus3 progress event, total committed:170870083, progress insts committed: 170945, IPC: 0.0170774
13969052537652: Event_285: system.switch_cpus3 progress event, total committed:171029382, progress insts committed: 159299, IPC: 0.015914
13969052537652: Event_284: system.switch_cpus2 progress event, total committed:171029633, progress insts committed: 159274, IPC: 0.0159115
13969052537652: Event_283: system.switch_cpus1 progress event, total committed:171030132, progress insts committed: 159356, IPC: 0.0159197
13969052537652: Event_282: system.switch_cpus0 progress event, total committed:171029859, progress insts committed: 159321, IPC: 0.0159162
13972385870985: Event_282: system.switch_cpus0 progress event, total committed:171197881, progress insts committed: 168022, IPC: 0.0167854
13972385870985: Event_283: system.switch_cpus1 progress event, total committed:171198123, progress insts committed: 167991, IPC: 0.0167823
13972385870985: Event_284: system.switch_cpus2 progress event, total committed:171197654, progress insts committed: 168021, IPC: 0.0167853
13972385870985: Event_285: system.switch_cpus3 progress event, total committed:171197418, progress insts committed: 168036, IPC: 0.0167868
13975719204318: Event_285: system.switch_cpus3 progress event, total committed:171366204, progress insts committed: 168786, IPC: 0.0168617
13975719204318: Event_284: system.switch_cpus2 progress event, total committed:171366480, progress insts committed: 168826, IPC: 0.0168657
13975719204318: Event_283: system.switch_cpus1 progress event, total committed:171366959, progress insts committed: 168836, IPC: 0.0168667
13975719204318: Event_282: system.switch_cpus0 progress event, total committed:171366693, progress insts committed: 168812, IPC: 0.0168643
13979052537651: Event_282: system.switch_cpus0 progress event, total committed:172692079, progress insts committed: 1325386, IPC: 0.132406
13979052537651: Event_283: system.switch_cpus1 progress event, total committed:172709960, progress insts committed: 1343001, IPC: 0.134166
13979052537651: Event_284: system.switch_cpus2 progress event, total committed:172674821, progress insts committed: 1308341, IPC: 0.130703
13979052537651: Event_285: system.switch_cpus3 progress event, total committed:172660122, progress insts committed: 1293918, IPC: 0.129262
13982385870984: Event_285: system.switch_cpus3 progress event, total committed:174827983, progress insts committed: 2167861, IPC: 0.216569
13982385870984: Event_284: system.switch_cpus2 progress event, total committed:174849246, progress insts committed: 2174425, IPC: 0.217225
13982385870984: Event_283: system.switch_cpus1 progress event, total committed:174883418, progress insts committed: 2173458, IPC: 0.217128
13982385870984: Event_282: system.switch_cpus0 progress event, total committed:174862860, progress insts committed: 2170781, IPC: 0.216861
13985719204317: Event_282: system.switch_cpus0 progress event, total committed:177072037, progress insts committed: 2209177, IPC: 0.220697
13985719204317: Event_283: system.switch_cpus1 progress event, total committed:177090182, progress insts committed: 2206764, IPC: 0.220456
13985719204317: Event_284: system.switch_cpus2 progress event, total committed:177051474, progress insts committed: 2202228, IPC: 0.220003
13985719204317: Event_285: system.switch_cpus3 progress event, total committed:177022551, progress insts committed: 2194568, IPC: 0.219237
13989052537650: Event_285: system.switch_cpus3 progress event, total committed:179509642, progress insts committed: 2487091, IPC: 00.24846
13989052537650: Event_284: system.switch_cpus2 progress event, total committed:179530217, progress insts committed: 2478743, IPC: 0.247626
13989052537650: Event_283: system.switch_cpus1 progress event, total committed:179578639, progress insts committed: 2488457, IPC: 0.248597
13989052537650: Event_282: system.switch_cpus0 progress event, total committed:179547770, progress insts committed: 2475733, IPC: 0.247326
13992385870983: Event_282: system.switch_cpus0 progress event, total committed:181890494, progress insts committed: 2342724, IPC: 0.234038
13992385870983: Event_283: system.switch_cpus1 progress event, total committed:181908827, progress insts committed: 2330188, IPC: 0.232786
13992385870983: Event_284: system.switch_cpus2 progress event, total committed:181869113, progress insts committed: 2338896, IPC: 0.233656
13992385870983: Event_285: system.switch_cpus3 progress event, total committed:181838991, progress insts committed: 2329349, IPC: 0.232702
13995719204316: Event_285: system.switch_cpus3 progress event, total committed:184318711, progress insts committed: 2479720, IPC: 0.247724
13995719204316: Event_284: system.switch_cpus2 progress event, total committed:184346444, progress insts committed: 2477331, IPC: 0.247485
13995719204316: Event_283: system.switch_cpus1 progress event, total committed:184388804, progress insts committed: 2479977, IPC: 00.24775
13995719204316: Event_282: system.switch_cpus0 progress event, total committed:184356884, progress insts committed: 2466390, IPC: 0.246392
13999052537649: Event_282: system.switch_cpus0 progress event, total committed:186672604, progress insts committed: 2315720, IPC: 00.23134
13999052537649: Event_283: system.switch_cpus1 progress event, total committed:186706652, progress insts committed: 2317848, IPC: 0.231553
13999052537649: Event_284: system.switch_cpus2 progress event, total committed:186657239, progress insts committed: 2310795, IPC: 0.230848
13999052537649: Event_285: system.switch_cpus3 progress event, total committed:186634186, progress insts committed: 2315475, IPC: 0.231316
14002385870982: Event_285: system.switch_cpus3 progress event, total committed:189107737, progress insts committed: 2473551, IPC: 0.247108
14002385870982: Event_284: system.switch_cpus2 progress event, total committed:189127522, progress insts committed: 2470283, IPC: 0.246781
14002385870982: Event_283: system.switch_cpus1 progress event, total committed:189170209, progress insts committed: 2463557, IPC: 0.246109
14002385870982: Event_282: system.switch_cpus0 progress event, total committed:189147229, progress insts committed: 2474625, IPC: 0.247215
14005719204315: Event_282: system.switch_cpus0 progress event, total committed:191453360, progress insts committed: 2306131, IPC: 0.230382
14005719204315: Event_283: system.switch_cpus1 progress event, total committed:191476640, progress insts committed: 2306431, IPC: 0.230412
14005719204315: Event_284: system.switch_cpus2 progress event, total committed:191437935, progress insts committed: 2310413, IPC: 00.23081
14005719204315: Event_285: system.switch_cpus3 progress event, total committed:191416828, progress insts committed: 2309091, IPC: 0.230678
14009052537648: Event_285: system.switch_cpus3 progress event, total committed:193869568, progress insts committed: 2452740, IPC: 0.245029
14009052537648: Event_284: system.switch_cpus2 progress event, total committed:193892908, progress insts committed: 2454973, IPC: 0.245252
14009052537648: Event_283: system.switch_cpus1 progress event, total committed:193931514, progress insts committed: 2454874, IPC: 0.245242
14009052537648: Event_282: system.switch_cpus0 progress event, total committed:193907521, progress insts committed: 2454161, IPC: 0.245171
14012385870981: Event_282: system.switch_cpus0 progress event, total committed:196305411, progress insts committed: 2397890, IPC: 0.239549
14012385870981: Event_283: system.switch_cpus1 progress event, total committed:196334889, progress insts committed: 2403375, IPC: 0.240097
14012385870981: Event_284: system.switch_cpus2 progress event, total committed:196293989, progress insts committed: 2401081, IPC: 0.239868
14012385870981: Event_285: system.switch_cpus3 progress event, total committed:196269694, progress insts committed: 2400126, IPC: 0.239773
14015719204314: Event_285: system.switch_cpus3 progress event, total committed:198555335, progress insts committed: 2285641, IPC: 0.228336
14015719204314: Event_284: system.switch_cpus2 progress event, total committed:198590976, progress insts committed: 2296987, IPC: 0.229469
14015719204314: Event_283: system.switch_cpus1 progress event, total committed:198631522, progress insts committed: 2296633, IPC: 0.229434
14015719204314: Event_282: system.switch_cpus0 progress event, total committed:198599602, progress insts committed: 2294191, IPC: 00.22919
14019052537647: Event_282: system.switch_cpus0 progress event, total committed:201048388, progress insts committed: 2448786, IPC: 0.244634
14019052537647: Event_283: system.switch_cpus1 progress event, total committed:201075326, progress insts committed: 2443804, IPC: 0.244136
14019052537647: Event_284: system.switch_cpus2 progress event, total committed:201033716, progress insts committed: 2442740, IPC: 00.24403
14019052537647: Event_285: system.switch_cpus3 progress event, total committed:200999136, progress insts committed: 2443801, IPC: 0.244136
14022385870980: Event_285: system.switch_cpus3 progress event, total committed:203262851, progress insts committed: 2263715, IPC: 0.226145
14022385870980: Event_284: system.switch_cpus2 progress event, total committed:203301122, progress insts committed: 2267406, IPC: 0.226514
14022385870980: Event_283: system.switch_cpus1 progress event, total committed:203339328, progress insts committed: 2264002, IPC: 0.226174
14022385870980: Event_282: system.switch_cpus0 progress event, total committed:203307940, progress insts committed: 2259552, IPC: 0.225729
14025719204313: Event_282: system.switch_cpus0 progress event, total committed:205716228, progress insts committed: 2408288, IPC: 0.240588
14025719204313: Event_283: system.switch_cpus1 progress event, total committed:205748148, progress insts committed: 2408820, IPC: 0.240641
14025719204313: Event_284: system.switch_cpus2 progress event, total committed:205709922, progress insts committed: 2408800, IPC: 0.240639
14025719204313: Event_285: system.switch_cpus3 progress event, total committed:205674086, progress insts committed: 2411235, IPC: 0.240882
14029052537646: Event_285: system.switch_cpus3 progress event, total committed:207975576, progress insts committed: 2301490, IPC: 0.229919
14029052537646: Event_284: system.switch_cpus2 progress event, total committed:208007607, progress insts committed: 2297685, IPC: 0.229539
14029052537646: Event_283: system.switch_cpus1 progress event, total committed:208048157, progress insts committed: 2300009, IPC: 0.229771
14029052537646: Event_282: system.switch_cpus0 progress event, total committed:208020964, progress insts committed: 2304736, IPC: 0.230243
14032385870979: Event_282: system.switch_cpus0 progress event, total committed:210528418, progress insts committed: 2507454, IPC: 0.250495
14032385870979: Event_283: system.switch_cpus1 progress event, total committed:210551362, progress insts committed: 2503205, IPC: 00.25007
14032385870979: Event_284: system.switch_cpus2 progress event, total committed:210510042, progress insts committed: 2502435, IPC: 0.249993
14032385870979: Event_285: system.switch_cpus3 progress event, total committed:210480495, progress insts committed: 2504919, IPC: 0.250241
14035719204312: Event_285: system.switch_cpus3 progress event, total committed:212820687, progress insts committed: 2340192, IPC: 0.233785
14035719204312: Event_284: system.switch_cpus2 progress event, total committed:212839350, progress insts committed: 2329308, IPC: 0.232698
14035719204312: Event_283: system.switch_cpus1 progress event, total committed:212888145, progress insts committed: 2336783, IPC: 0.233445
14035719204312: Event_282: system.switch_cpus0 progress event, total committed:212856732, progress insts committed: 2328314, IPC: 0.232599
14039052537645: Event_282: system.switch_cpus0 progress event, total committed:215352209, progress insts committed: 2495477, IPC: 0.249298
14039052537645: Event_283: system.switch_cpus1 progress event, total committed:215385722, progress insts committed: 2497577, IPC: 0.249508
14039052537645: Event_284: system.switch_cpus2 progress event, total committed:215344112, progress insts committed: 2504762, IPC: 0.250226
14039052537645: Event_285: system.switch_cpus3 progress event, total committed:215316206, progress insts committed: 2495519, IPC: 0.249302
14042385870978: Event_285: system.switch_cpus3 progress event, total committed:217657791, progress insts committed: 2341585, IPC: 0.233924
14042385870978: Event_284: system.switch_cpus2 progress event, total committed:217685772, progress insts committed: 2341660, IPC: 0.233932
14042385870978: Event_283: system.switch_cpus1 progress event, total committed:217726850, progress insts committed: 2341128, IPC: 0.233879
14042385870978: Event_282: system.switch_cpus0 progress event, total committed:217708648, progress insts committed: 2356439, IPC: 0.235408
14045719204311: Event_282: system.switch_cpus0 progress event, total committed:220189552, progress insts committed: 2480904, IPC: 0.247842
14045719204311: Event_283: system.switch_cpus1 progress event, total committed:220218812, progress insts committed: 2491962, IPC: 0.248947
14045719204311: Event_284: system.switch_cpus2 progress event, total committed:220177731, progress insts committed: 2491959, IPC: 0.248947
14045719204311: Event_285: system.switch_cpus3 progress event, total committed:220149825, progress insts committed: 2492034, IPC: 0.248954
14049052537644: Event_285: system.switch_cpus3 progress event, total committed:222529499, progress insts committed: 2379674, IPC: 0.237729
14049052537644: Event_284: system.switch_cpus2 progress event, total committed:222547875, progress insts committed: 2370144, IPC: 0.236777
14049052537644: Event_283: system.switch_cpus1 progress event, total committed:222598241, progress insts committed: 2379429, IPC: 0.237705
14049052537644: Event_282: system.switch_cpus0 progress event, total committed:222574833, progress insts committed: 2385281, IPC: 00.23829
14052385870977: Event_282: system.switch_cpus0 progress event, total committed:224983420, progress insts committed: 2408587, IPC: 0.240618
14052385870977: Event_283: system.switch_cpus1 progress event, total committed:225007650, progress insts committed: 2409409, IPC: 000.2407
14052385870977: Event_284: system.switch_cpus2 progress event, total committed:224958060, progress insts committed: 2410185, IPC: 0.240777
14052385870977: Event_285: system.switch_cpus3 progress event, total committed:224937844, progress insts committed: 2408345, IPC: 0.240594
14055719204310: Event_285: system.switch_cpus3 progress event, total committed:227375088, progress insts committed: 2437244, IPC: 0.243481
14055719204310: Event_284: system.switch_cpus2 progress event, total committed:227384501, progress insts committed: 2426441, IPC: 0.242401
14055719204310: Event_283: system.switch_cpus1 progress event, total committed:227439930, progress insts committed: 2432280, IPC: 0.242985
14055719204310: Event_282: system.switch_cpus0 progress event, total committed:227417762, progress insts committed: 2434342, IPC: 0.243191
14059052537643: Event_282: system.switch_cpus0 progress event, total committed:229679977, progress insts committed: 2262215, IPC: 0.225995
14059052537643: Event_283: system.switch_cpus1 progress event, total committed:229697048, progress insts committed: 2257118, IPC: 0.225486
14059052537643: Event_284: system.switch_cpus2 progress event, total committed:229638691, progress insts committed: 2254190, IPC: 0.225194
14059052537643: Event_285: system.switch_cpus3 progress event, total committed:229628239, progress insts committed: 2253151, IPC: 00.22509
14062385870976: Event_285: system.switch_cpus3 progress event, total committed:232042287, progress insts committed: 2414048, IPC: 0.241163
14062385870976: Event_284: system.switch_cpus2 progress event, total committed:232042295, progress insts committed: 2403604, IPC: 00.24012
14062385870976: Event_283: system.switch_cpus1 progress event, total committed:232094735, progress insts committed: 2397687, IPC: 0.239529
14062385870976: Event_282: system.switch_cpus0 progress event, total committed:232061399, progress insts committed: 2381422, IPC: 0.237904
14065719204309: Event_282: system.switch_cpus0 progress event, total committed:234169733, progress insts committed: 2108334, IPC: 0.210623
14065719204309: Event_283: system.switch_cpus1 progress event, total committed:234186268, progress insts committed: 2091533, IPC: 0.208944
14065719204309: Event_284: system.switch_cpus2 progress event, total committed:234134550, progress insts committed: 2092255, IPC: 0.209016
14065719204309: Event_285: system.switch_cpus3 progress event, total committed:234137662, progress insts committed: 2095375, IPC: 0.209328
14069052537642: Event_285: system.switch_cpus3 progress event, total committed:236671104, progress insts committed: 2533442, IPC: 0.253091
14069052537642: Event_284: system.switch_cpus2 progress event, total committed:236663164, progress insts committed: 2528614, IPC: 0.252609
14069052537642: Event_283: system.switch_cpus1 progress event, total committed:236708458, progress insts committed: 2522190, IPC: 0.251967
14069052537642: Event_282: system.switch_cpus0 progress event, total committed:236694700, progress insts committed: 2524967, IPC: 0.252244
14072385870975: Event_282: system.switch_cpus0 progress event, total committed:238659236, progress insts committed: 1964536, IPC: 0.196257
14072385870975: Event_283: system.switch_cpus1 progress event, total committed:238659381, progress insts committed: 1950923, IPC: 0.194897
14072385870975: Event_284: system.switch_cpus2 progress event, total committed:238648662, progress insts committed: 1985498, IPC: 0.198351
14072385870975: Event_285: system.switch_cpus3 progress event, total committed:238658884, progress insts committed: 1987780, IPC: 0.198579
14075719204308: Event_285: system.switch_cpus3 progress event, total committed:241093147, progress insts committed: 2434263, IPC: 0.243183
14075719204308: Event_284: system.switch_cpus2 progress event, total committed:241075424, progress insts committed: 2426762, IPC: 0.242434
14075719204308: Event_283: system.switch_cpus1 progress event, total committed:241120978, progress insts committed: 2461597, IPC: 0.245914
14075719204308: Event_282: system.switch_cpus0 progress event, total committed:241109029, progress insts committed: 2449793, IPC: 0.244734
14079052537641: Event_282: system.switch_cpus0 progress event, total committed:243200327, progress insts committed: 2091298, IPC: 0.208921
14079052537641: Event_283: system.switch_cpus1 progress event, total committed:243205622, progress insts committed: 2084644, IPC: 0.208256
14079052537641: Event_284: system.switch_cpus2 progress event, total committed:243187296, progress insts committed: 2111872, IPC: 0.210976
14079052537641: Event_285: system.switch_cpus3 progress event, total committed:243187467, progress insts committed: 2094320, IPC: 0.209223
14082385870974: Event_285: system.switch_cpus3 progress event, total committed:245376693, progress insts committed: 2189226, IPC: 0.218704
14082385870974: Event_284: system.switch_cpus2 progress event, total committed:245366872, progress insts committed: 2179576, IPC: 00.21774
14082385870974: Event_283: system.switch_cpus1 progress event, total committed:245418590, progress insts committed: 2212968, IPC: 0.221076
14082385870974: Event_282: system.switch_cpus0 progress event, total committed:245418048, progress insts committed: 2217721, IPC: 00.22155
14085719204307: Event_282: system.switch_cpus0 progress event, total committed:247651374, progress insts committed: 2233326, IPC: 0.223109
14085719204307: Event_283: system.switch_cpus1 progress event, total committed:247660623, progress insts committed: 2242033, IPC: 0.223979
14085719204307: Event_284: system.switch_cpus2 progress event, total committed:247633572, progress insts committed: 2266700, IPC: 0.226443
14085719204307: Event_285: system.switch_cpus3 progress event, total committed:247633686, progress insts committed: 2256993, IPC: 0.225474
14089052537640: Event_285: system.switch_cpus3 progress event, total committed:249543494, progress insts committed: 1909808, IPC: 00.19079
14089052537640: Event_284: system.switch_cpus2 progress event, total committed:249532489, progress insts committed: 1898917, IPC: 0.189702
14089052537640: Event_283: system.switch_cpus1 progress event, total committed:249591969, progress insts committed: 1931346, IPC: 0.192941
14089052537640: Event_282: system.switch_cpus0 progress event, total committed:249588718, progress insts committed: 1937344, IPC: 0.193541
14092385870973: Event_282: system.switch_cpus0 progress event, total committed:251973319, progress insts committed: 2384601, IPC: 0.238222
14092385870973: Event_283: system.switch_cpus1 progress event, total committed:251974348, progress insts committed: 2382379, IPC: 0000.238
14092385870973: Event_284: system.switch_cpus2 progress event, total committed:251910926, progress insts committed: 2378437, IPC: 0.237606
14092385870973: Event_285: system.switch_cpus3 progress event, total committed:251937281, progress insts committed: 2393787, IPC: 0.239139
14095719204306: Event_285: system.switch_cpus3 progress event, total committed:253668580, progress insts committed: 1731299, IPC: 0.172957
14095719204306: Event_284: system.switch_cpus2 progress event, total committed:253653394, progress insts committed: 1742468, IPC: 0.174073
14095719204306: Event_283: system.switch_cpus1 progress event, total committed:253747513, progress insts committed: 1773165, IPC: 0.177139
14095719204306: Event_282: system.switch_cpus0 progress event, total committed:253747487, progress insts committed: 1774168, IPC: 0.177239
14099052537639: Event_282: system.switch_cpus0 progress event, total committed:256154668, progress insts committed: 2407181, IPC: 0.240477
14099052537639: Event_283: system.switch_cpus1 progress event, total committed:256154666, progress insts committed: 2407153, IPC: 0.240475
14099052537639: Event_284: system.switch_cpus2 progress event, total committed:256153635, progress insts committed: 2500241, IPC: 0.249774
14099052537639: Event_285: system.switch_cpus3 progress event, total committed:256153756, progress insts committed: 2485176, IPC: 0.248269
14102385870972: Event_285: system.switch_cpus3 progress event, total committed:257854408, progress insts committed: 1700652, IPC: 0.169895
14102385870972: Event_284: system.switch_cpus2 progress event, total committed:257854237, progress insts committed: 1700602, IPC: 00.16989
14102385870972: Event_283: system.switch_cpus1 progress event, total committed:257870026, progress insts committed: 1715360, IPC: 0.171364
14102385870972: Event_282: system.switch_cpus0 progress event, total committed:257871551, progress insts committed: 1716883, IPC: 0.171517
14105719204305: Event_282: system.switch_cpus0 progress event, total committed:260271403, progress insts committed: 2399852, IPC: 0.239745
14105719204305: Event_283: system.switch_cpus1 progress event, total committed:260267392, progress insts committed: 2397366, IPC: 0.239497
14105719204305: Event_284: system.switch_cpus2 progress event, total committed:260173819, progress insts committed: 2319582, IPC: 0.231726
14105719204305: Event_285: system.switch_cpus3 progress event, total committed:260192162, progress insts committed: 2337754, IPC: 0.233542
14109052537638: Event_285: system.switch_cpus3 progress event, total committed:262162422, progress insts committed: 1970260, IPC: 0.196829
14109052537638: Event_284: system.switch_cpus2 progress event, total committed:262162371, progress insts committed: 1988552, IPC: 0.198656
14109052537638: Event_283: system.switch_cpus1 progress event, total committed:262164227, progress insts committed: 1896835, IPC: 0.189494
14109052537638: Event_282: system.switch_cpus0 progress event, total committed:262165880, progress insts committed: 1894477, IPC: 0.189258
14112385870971: Event_282: system.switch_cpus0 progress event, total committed:264272528, progress insts committed: 2106648, IPC: 0.210454
14112385870971: Event_283: system.switch_cpus1 progress event, total committed:264272078, progress insts committed: 2107851, IPC: 0.210574
14112385870971: Event_284: system.switch_cpus2 progress event, total committed:264149944, progress insts committed: 1987573, IPC: 0.198559
14112385870971: Event_285: system.switch_cpus3 progress event, total committed:264156854, progress insts committed: 1994432, IPC: 0.199244
14115719204304: Event_285: system.switch_cpus3 progress event, total committed:266374283, progress insts committed: 2217429, IPC: 0.221521
14115719204304: Event_284: system.switch_cpus2 progress event, total committed:266374270, progress insts committed: 2224326, IPC: 00.22221
14115719204304: Event_283: system.switch_cpus1 progress event, total committed:266404579, progress insts committed: 2132501, IPC: 0.213037
14115719204304: Event_282: system.switch_cpus0 progress event, total committed:266404579, progress insts committed: 2132051, IPC: 0.212992
14119052537637: Event_282: system.switch_cpus0 progress event, total committed:268150931, progress insts committed: 1746352, IPC: 0.174461
14119052537637: Event_283: system.switch_cpus1 progress event, total committed:268146675, progress insts committed: 1742096, IPC: 0.174035
14119052537637: Event_284: system.switch_cpus2 progress event, total committed:268030184, progress insts committed: 1655914, IPC: 0.165426
14119052537637: Event_285: system.switch_cpus3 progress event, total committed:268024827, progress insts committed: 1650544, IPC: 0.164889
14122385870970: Event_285: system.switch_cpus3 progress event, total committed:270327161, progress insts committed: 2302334, IPC: 0.230003
14122385870970: Event_284: system.switch_cpus2 progress event, total committed:270335097, progress insts committed: 2304913, IPC: 0.230261
14122385870970: Event_283: system.switch_cpus1 progress event, total committed:270446608, progress insts committed: 2299933, IPC: 0.229763
14122385870970: Event_282: system.switch_cpus0 progress event, total committed:270451468, progress insts committed: 2300537, IPC: 0.229824
14125719204303: Event_282: system.switch_cpus0 progress event, total committed:271997133, progress insts committed: 1545665, IPC: 0.154412
14125719204303: Event_283: system.switch_cpus1 progress event, total committed:271989976, progress insts committed: 1543368, IPC: 0.154182
14125719204303: Event_284: system.switch_cpus2 progress event, total committed:271976961, progress insts committed: 1641864, IPC: 0.164022
14125719204303: Event_285: system.switch_cpus3 progress event, total committed:271974379, progress insts committed: 1647218, IPC: 0.164557
14129052537636: Event_285: system.switch_cpus3 progress event, total committed:274299616, progress insts committed: 2325237, IPC: 0.232291
14129052537636: Event_284: system.switch_cpus2 progress event, total committed:274306000, progress insts committed: 2329039, IPC: 0.232671
14129052537636: Event_283: system.switch_cpus1 progress event, total committed:274426992, progress insts committed: 2437016, IPC: 0.243458
14129052537636: Event_282: system.switch_cpus0 progress event, total committed:274433413, progress insts committed: 2436280, IPC: 0.243384
Exiting @ tick 14130285685551 because a thread reached the max instruction count
