
---------- Begin Simulation Statistics ----------
final_tick                               14134996196991                       # Number of ticks from beginning of simulation (restored from checkpoints and never reset)
host_inst_rate                                  92159                       # Simulator instruction rate (inst/s)
host_mem_usage                               17296280                       # Number of bytes of host memory used
host_op_rate                                   101439                       # Simulator op (including micro ops) rate (op/s)
host_seconds                                 10848.40                       # Real time elapsed on the host
host_tick_rate                               38341485                       # Simulator tick rate (ticks/s)
sim_freq                                 1000000000000                       # Frequency of simulated ticks
sim_insts                                   999775279                       # Number of instructions simulated
sim_ops                                    1100454964                       # Number of ops (including micro ops) simulated
sim_seconds                                  0.415944                       # Number of seconds simulated
sim_ticks                                415943601705                       # Number of ticks simulated
system.cpu0.committedInsts                         19                       # Number of instructions committed
system.cpu0.committedOps                           20                       # Number of ops (including micro ops) committed
system.cpu0.idle_fraction                           0                       # Percentage of idle cycles
system.cpu0.l2bus.snoop_filter.hit_multi_requests            0                       # Number of requests hitting in the snoop filter with multiple (>1) holders of the requested data.
system.cpu0.l2bus.snoop_filter.hit_multi_snoops            0                       # Number of snoops hitting in the snoop filter with multiple (>1) holders of the requested data.
system.cpu0.l2bus.snoop_filter.hit_single_requests     12658393                       # Number of requests hitting in the snoop filter with a single holder of the requested data.
system.cpu0.l2bus.snoop_filter.hit_single_snoops      4661054                       # Number of snoops hitting in the snoop filter with a single holder of the requested data.
system.cpu0.l2bus.snoop_filter.tot_requests     21966760                       # Total number of requests made to the snoop filter.
system.cpu0.l2bus.snoop_filter.tot_snoops      4661054                       # Total number of snoops made to the snoop filter.
system.cpu0.mmucache.mmubus.snoop_filter.hit_multi_requests            0                       # Number of requests hitting in the snoop filter with multiple (>1) holders of the requested data.
system.cpu0.mmucache.mmubus.snoop_filter.hit_multi_snoops            0                       # Number of snoops hitting in the snoop filter with multiple (>1) holders of the requested data.
system.cpu0.mmucache.mmubus.snoop_filter.hit_single_requests            0                       # Number of requests hitting in the snoop filter with a single holder of the requested data.
system.cpu0.mmucache.mmubus.snoop_filter.hit_single_snoops            0                       # Number of snoops hitting in the snoop filter with a single holder of the requested data.
system.cpu0.mmucache.mmubus.snoop_filter.tot_requests            0                       # Total number of requests made to the snoop filter.
system.cpu0.mmucache.mmubus.snoop_filter.tot_snoops            0                       # Total number of snoops made to the snoop filter.
system.cpu0.not_idle_fraction                       1                       # Percentage of non-idle cycles
system.cpu0.numCycles                              30                       # number of cpu cycles simulated
system.cpu0.numWorkItemsCompleted                   0                       # number of work items this cpu completed
system.cpu0.numWorkItemsStarted                     0                       # number of work items this cpu started
system.cpu0.num_busy_cycles                        30                       # Number of busy cycles
system.cpu0.num_conditional_control_insts            0                       # number of instructions that are conditional controls
system.cpu0.num_fp_alu_accesses                    20                       # Number of float alu accesses
system.cpu0.num_fp_insts                           20                       # number of float instructions
system.cpu0.num_fp_register_reads                  36                       # number of times the floating registers were read
system.cpu0.num_fp_register_writes                 19                       # number of times the floating registers were written
system.cpu0.num_func_calls                          0                       # number of times a function call or return occured
system.cpu0.num_idle_cycles                         0                       # Number of idle cycles
system.cpu0.num_int_alu_accesses                    8                       # Number of integer alu accesses
system.cpu0.num_int_insts                           8                       # number of integer instructions
system.cpu0.num_int_register_reads                 24                       # number of times the integer registers were read
system.cpu0.num_int_register_writes                 0                       # number of times the integer registers were written
system.cpu0.num_load_insts                          7                       # Number of load instructions
system.cpu0.num_mem_refs                            8                       # number of memory refs
system.cpu0.num_store_insts                         1                       # Number of store instructions
system.cpu0.num_vec_alu_accesses                    0                       # Number of vector alu accesses
system.cpu0.num_vec_insts                           0                       # number of vector instructions
system.cpu0.num_vec_register_reads                  0                       # number of times the vector registers were read
system.cpu0.num_vec_register_writes                 0                       # number of times the vector registers were written
system.cpu0.op_class::No_OpClass                    0      0.00%      0.00% # Class of executed instruction
system.cpu0.op_class::IntAlu                        1      5.00%      5.00% # Class of executed instruction
system.cpu0.op_class::IntMult                       0      0.00%      5.00% # Class of executed instruction
system.cpu0.op_class::IntDiv                        0      0.00%      5.00% # Class of executed instruction
system.cpu0.op_class::FloatAdd                      0      0.00%      5.00% # Class of executed instruction
system.cpu0.op_class::FloatCmp                      0      0.00%      5.00% # Class of executed instruction
system.cpu0.op_class::FloatCvt                      0      0.00%      5.00% # Class of executed instruction
system.cpu0.op_class::FloatMult                     0      0.00%      5.00% # Class of executed instruction
system.cpu0.op_class::FloatMultAcc                  0      0.00%      5.00% # Class of executed instruction
system.cpu0.op_class::FloatDiv                      0      0.00%      5.00% # Class of executed instruction
system.cpu0.op_class::FloatMisc                     0      0.00%      5.00% # Class of executed instruction
system.cpu0.op_class::FloatSqrt                     0      0.00%      5.00% # Class of executed instruction
system.cpu0.op_class::SimdAdd                       0      0.00%      5.00% # Class of executed instruction
system.cpu0.op_class::SimdAddAcc                    0      0.00%      5.00% # Class of executed instruction
system.cpu0.op_class::SimdAlu                       0      0.00%      5.00% # Class of executed instruction
system.cpu0.op_class::SimdCmp                       0      0.00%      5.00% # Class of executed instruction
system.cpu0.op_class::SimdCvt                       0      0.00%      5.00% # Class of executed instruction
system.cpu0.op_class::SimdMisc                      0      0.00%      5.00% # Class of executed instruction
system.cpu0.op_class::SimdMult                      0      0.00%      5.00% # Class of executed instruction
system.cpu0.op_class::SimdMultAcc                   0      0.00%      5.00% # Class of executed instruction
system.cpu0.op_class::SimdShift                     0      0.00%      5.00% # Class of executed instruction
system.cpu0.op_class::SimdShiftAcc                  0      0.00%      5.00% # Class of executed instruction
system.cpu0.op_class::SimdDiv                       0      0.00%      5.00% # Class of executed instruction
system.cpu0.op_class::SimdSqrt                      0      0.00%      5.00% # Class of executed instruction
system.cpu0.op_class::SimdFloatAdd                  5     25.00%     30.00% # Class of executed instruction
system.cpu0.op_class::SimdFloatAlu                  0      0.00%     30.00% # Class of executed instruction
system.cpu0.op_class::SimdFloatCmp                  0      0.00%     30.00% # Class of executed instruction
system.cpu0.op_class::SimdFloatCvt                  0      0.00%     30.00% # Class of executed instruction
system.cpu0.op_class::SimdFloatDiv                  0      0.00%     30.00% # Class of executed instruction
system.cpu0.op_class::SimdFloatMisc                 0      0.00%     30.00% # Class of executed instruction
system.cpu0.op_class::SimdFloatMult                 6     30.00%     60.00% # Class of executed instruction
system.cpu0.op_class::SimdFloatMultAcc              0      0.00%     60.00% # Class of executed instruction
system.cpu0.op_class::SimdFloatSqrt                 0      0.00%     60.00% # Class of executed instruction
system.cpu0.op_class::SimdReduceAdd                 0      0.00%     60.00% # Class of executed instruction
system.cpu0.op_class::SimdReduceAlu                 0      0.00%     60.00% # Class of executed instruction
system.cpu0.op_class::SimdReduceCmp                 0      0.00%     60.00% # Class of executed instruction
system.cpu0.op_class::SimdFloatReduceAdd            0      0.00%     60.00% # Class of executed instruction
system.cpu0.op_class::SimdFloatReduceCmp            0      0.00%     60.00% # Class of executed instruction
system.cpu0.op_class::SimdAes                       0      0.00%     60.00% # Class of executed instruction
system.cpu0.op_class::SimdAesMix                    0      0.00%     60.00% # Class of executed instruction
system.cpu0.op_class::SimdSha1Hash                  0      0.00%     60.00% # Class of executed instruction
system.cpu0.op_class::SimdSha1Hash2                 0      0.00%     60.00% # Class of executed instruction
system.cpu0.op_class::SimdSha256Hash                0      0.00%     60.00% # Class of executed instruction
system.cpu0.op_class::SimdSha256Hash2               0      0.00%     60.00% # Class of executed instruction
system.cpu0.op_class::SimdShaSigma2                 0      0.00%     60.00% # Class of executed instruction
system.cpu0.op_class::SimdShaSigma3                 0      0.00%     60.00% # Class of executed instruction
system.cpu0.op_class::SimdPredAlu                   0      0.00%     60.00% # Class of executed instruction
system.cpu0.op_class::MemRead                       0      0.00%     60.00% # Class of executed instruction
system.cpu0.op_class::MemWrite                      0      0.00%     60.00% # Class of executed instruction
system.cpu0.op_class::FloatMemRead                  7     35.00%     95.00% # Class of executed instruction
system.cpu0.op_class::FloatMemWrite                 1      5.00%    100.00% # Class of executed instruction
system.cpu0.op_class::IprAccess                     0      0.00%    100.00% # Class of executed instruction
system.cpu0.op_class::InstPrefetch                  0      0.00%    100.00% # Class of executed instruction
system.cpu0.op_class::total                        20                       # Class of executed instruction
system.cpu0.workload.numSyscalls                    0                       # Number of system calls
system.cpu1.committedInsts                         19                       # Number of instructions committed
system.cpu1.committedOps                           20                       # Number of ops (including micro ops) committed
system.cpu1.idle_fraction                           0                       # Percentage of idle cycles
system.cpu1.l2bus.snoop_filter.hit_multi_requests            0                       # Number of requests hitting in the snoop filter with multiple (>1) holders of the requested data.
system.cpu1.l2bus.snoop_filter.hit_multi_snoops            0                       # Number of snoops hitting in the snoop filter with multiple (>1) holders of the requested data.
system.cpu1.l2bus.snoop_filter.hit_single_requests     12658096                       # Number of requests hitting in the snoop filter with a single holder of the requested data.
system.cpu1.l2bus.snoop_filter.hit_single_snoops      4658119                       # Number of snoops hitting in the snoop filter with a single holder of the requested data.
system.cpu1.l2bus.snoop_filter.tot_requests     21966227                       # Total number of requests made to the snoop filter.
system.cpu1.l2bus.snoop_filter.tot_snoops      4658119                       # Total number of snoops made to the snoop filter.
system.cpu1.mmucache.mmubus.snoop_filter.hit_multi_requests            0                       # Number of requests hitting in the snoop filter with multiple (>1) holders of the requested data.
system.cpu1.mmucache.mmubus.snoop_filter.hit_multi_snoops            0                       # Number of snoops hitting in the snoop filter with multiple (>1) holders of the requested data.
system.cpu1.mmucache.mmubus.snoop_filter.hit_single_requests            0                       # Number of requests hitting in the snoop filter with a single holder of the requested data.
system.cpu1.mmucache.mmubus.snoop_filter.hit_single_snoops            0                       # Number of snoops hitting in the snoop filter with a single holder of the requested data.
system.cpu1.mmucache.mmubus.snoop_filter.tot_requests            0                       # Total number of requests made to the snoop filter.
system.cpu1.mmucache.mmubus.snoop_filter.tot_snoops            0                       # Total number of snoops made to the snoop filter.
system.cpu1.not_idle_fraction                       1                       # Percentage of non-idle cycles
system.cpu1.numCycles                              30                       # number of cpu cycles simulated
system.cpu1.numWorkItemsCompleted                   0                       # number of work items this cpu completed
system.cpu1.numWorkItemsStarted                     0                       # number of work items this cpu started
system.cpu1.num_busy_cycles                        30                       # Number of busy cycles
system.cpu1.num_conditional_control_insts            0                       # number of instructions that are conditional controls
system.cpu1.num_fp_alu_accesses                    20                       # Number of float alu accesses
system.cpu1.num_fp_insts                           20                       # number of float instructions
system.cpu1.num_fp_register_reads                  36                       # number of times the floating registers were read
system.cpu1.num_fp_register_writes                 19                       # number of times the floating registers were written
system.cpu1.num_func_calls                          0                       # number of times a function call or return occured
system.cpu1.num_idle_cycles                         0                       # Number of idle cycles
system.cpu1.num_int_alu_accesses                    8                       # Number of integer alu accesses
system.cpu1.num_int_insts                           8                       # number of integer instructions
system.cpu1.num_int_register_reads                 24                       # number of times the integer registers were read
system.cpu1.num_int_register_writes                 0                       # number of times the integer registers were written
system.cpu1.num_load_insts                          7                       # Number of load instructions
system.cpu1.num_mem_refs                            8                       # number of memory refs
system.cpu1.num_store_insts                         1                       # Number of store instructions
system.cpu1.num_vec_alu_accesses                    0                       # Number of vector alu accesses
system.cpu1.num_vec_insts                           0                       # number of vector instructions
system.cpu1.num_vec_register_reads                  0                       # number of times the vector registers were read
system.cpu1.num_vec_register_writes                 0                       # number of times the vector registers were written
system.cpu1.op_class::No_OpClass                    0      0.00%      0.00% # Class of executed instruction
system.cpu1.op_class::IntAlu                        1      5.00%      5.00% # Class of executed instruction
system.cpu1.op_class::IntMult                       0      0.00%      5.00% # Class of executed instruction
system.cpu1.op_class::IntDiv                        0      0.00%      5.00% # Class of executed instruction
system.cpu1.op_class::FloatAdd                      0      0.00%      5.00% # Class of executed instruction
system.cpu1.op_class::FloatCmp                      0      0.00%      5.00% # Class of executed instruction
system.cpu1.op_class::FloatCvt                      0      0.00%      5.00% # Class of executed instruction
system.cpu1.op_class::FloatMult                     0      0.00%      5.00% # Class of executed instruction
system.cpu1.op_class::FloatMultAcc                  0      0.00%      5.00% # Class of executed instruction
system.cpu1.op_class::FloatDiv                      0      0.00%      5.00% # Class of executed instruction
system.cpu1.op_class::FloatMisc                     0      0.00%      5.00% # Class of executed instruction
system.cpu1.op_class::FloatSqrt                     0      0.00%      5.00% # Class of executed instruction
system.cpu1.op_class::SimdAdd                       0      0.00%      5.00% # Class of executed instruction
system.cpu1.op_class::SimdAddAcc                    0      0.00%      5.00% # Class of executed instruction
system.cpu1.op_class::SimdAlu                       0      0.00%      5.00% # Class of executed instruction
system.cpu1.op_class::SimdCmp                       0      0.00%      5.00% # Class of executed instruction
system.cpu1.op_class::SimdCvt                       0      0.00%      5.00% # Class of executed instruction
system.cpu1.op_class::SimdMisc                      0      0.00%      5.00% # Class of executed instruction
system.cpu1.op_class::SimdMult                      0      0.00%      5.00% # Class of executed instruction
system.cpu1.op_class::SimdMultAcc                   0      0.00%      5.00% # Class of executed instruction
system.cpu1.op_class::SimdShift                     0      0.00%      5.00% # Class of executed instruction
system.cpu1.op_class::SimdShiftAcc                  0      0.00%      5.00% # Class of executed instruction
system.cpu1.op_class::SimdDiv                       0      0.00%      5.00% # Class of executed instruction
system.cpu1.op_class::SimdSqrt                      0      0.00%      5.00% # Class of executed instruction
system.cpu1.op_class::SimdFloatAdd                  5     25.00%     30.00% # Class of executed instruction
system.cpu1.op_class::SimdFloatAlu                  0      0.00%     30.00% # Class of executed instruction
system.cpu1.op_class::SimdFloatCmp                  0      0.00%     30.00% # Class of executed instruction
system.cpu1.op_class::SimdFloatCvt                  0      0.00%     30.00% # Class of executed instruction
system.cpu1.op_class::SimdFloatDiv                  0      0.00%     30.00% # Class of executed instruction
system.cpu1.op_class::SimdFloatMisc                 0      0.00%     30.00% # Class of executed instruction
system.cpu1.op_class::SimdFloatMult                 6     30.00%     60.00% # Class of executed instruction
system.cpu1.op_class::SimdFloatMultAcc              0      0.00%     60.00% # Class of executed instruction
system.cpu1.op_class::SimdFloatSqrt                 0      0.00%     60.00% # Class of executed instruction
system.cpu1.op_class::SimdReduceAdd                 0      0.00%     60.00% # Class of executed instruction
system.cpu1.op_class::SimdReduceAlu                 0      0.00%     60.00% # Class of executed instruction
system.cpu1.op_class::SimdReduceCmp                 0      0.00%     60.00% # Class of executed instruction
system.cpu1.op_class::SimdFloatReduceAdd            0      0.00%     60.00% # Class of executed instruction
system.cpu1.op_class::SimdFloatReduceCmp            0      0.00%     60.00% # Class of executed instruction
system.cpu1.op_class::SimdAes                       0      0.00%     60.00% # Class of executed instruction
system.cpu1.op_class::SimdAesMix                    0      0.00%     60.00% # Class of executed instruction
system.cpu1.op_class::SimdSha1Hash                  0      0.00%     60.00% # Class of executed instruction
system.cpu1.op_class::SimdSha1Hash2                 0      0.00%     60.00% # Class of executed instruction
system.cpu1.op_class::SimdSha256Hash                0      0.00%     60.00% # Class of executed instruction
system.cpu1.op_class::SimdSha256Hash2               0      0.00%     60.00% # Class of executed instruction
system.cpu1.op_class::SimdShaSigma2                 0      0.00%     60.00% # Class of executed instruction
system.cpu1.op_class::SimdShaSigma3                 0      0.00%     60.00% # Class of executed instruction
system.cpu1.op_class::SimdPredAlu                   0      0.00%     60.00% # Class of executed instruction
system.cpu1.op_class::MemRead                       0      0.00%     60.00% # Class of executed instruction
system.cpu1.op_class::MemWrite                      0      0.00%     60.00% # Class of executed instruction
system.cpu1.op_class::FloatMemRead                  7     35.00%     95.00% # Class of executed instruction
system.cpu1.op_class::FloatMemWrite                 1      5.00%    100.00% # Class of executed instruction
system.cpu1.op_class::IprAccess                     0      0.00%    100.00% # Class of executed instruction
system.cpu1.op_class::InstPrefetch                  0      0.00%    100.00% # Class of executed instruction
system.cpu1.op_class::total                        20                       # Class of executed instruction
system.cpu1.workload.numSyscalls                    0                       # Number of system calls
system.cpu2.committedInsts                         19                       # Number of instructions committed
system.cpu2.committedOps                           20                       # Number of ops (including micro ops) committed
system.cpu2.idle_fraction                           0                       # Percentage of idle cycles
system.cpu2.l2bus.snoop_filter.hit_multi_requests            0                       # Number of requests hitting in the snoop filter with multiple (>1) holders of the requested data.
system.cpu2.l2bus.snoop_filter.hit_multi_snoops            0                       # Number of snoops hitting in the snoop filter with multiple (>1) holders of the requested data.
system.cpu2.l2bus.snoop_filter.hit_single_requests     12663800                       # Number of requests hitting in the snoop filter with a single holder of the requested data.
system.cpu2.l2bus.snoop_filter.hit_single_snoops      4666058                       # Number of snoops hitting in the snoop filter with a single holder of the requested data.
system.cpu2.l2bus.snoop_filter.tot_requests     21975923                       # Total number of requests made to the snoop filter.
system.cpu2.l2bus.snoop_filter.tot_snoops      4666058                       # Total number of snoops made to the snoop filter.
system.cpu2.mmucache.mmubus.snoop_filter.hit_multi_requests            0                       # Number of requests hitting in the snoop filter with multiple (>1) holders of the requested data.
system.cpu2.mmucache.mmubus.snoop_filter.hit_multi_snoops            0                       # Number of snoops hitting in the snoop filter with multiple (>1) holders of the requested data.
system.cpu2.mmucache.mmubus.snoop_filter.hit_single_requests            0                       # Number of requests hitting in the snoop filter with a single holder of the requested data.
system.cpu2.mmucache.mmubus.snoop_filter.hit_single_snoops            0                       # Number of snoops hitting in the snoop filter with a single holder of the requested data.
system.cpu2.mmucache.mmubus.snoop_filter.tot_requests            0                       # Total number of requests made to the snoop filter.
system.cpu2.mmucache.mmubus.snoop_filter.tot_snoops            0                       # Total number of snoops made to the snoop filter.
system.cpu2.not_idle_fraction                       1                       # Percentage of non-idle cycles
system.cpu2.numCycles                              30                       # number of cpu cycles simulated
system.cpu2.numWorkItemsCompleted                   0                       # number of work items this cpu completed
system.cpu2.numWorkItemsStarted                     0                       # number of work items this cpu started
system.cpu2.num_busy_cycles                        30                       # Number of busy cycles
system.cpu2.num_conditional_control_insts            0                       # number of instructions that are conditional controls
system.cpu2.num_fp_alu_accesses                    20                       # Number of float alu accesses
system.cpu2.num_fp_insts                           20                       # number of float instructions
system.cpu2.num_fp_register_reads                  36                       # number of times the floating registers were read
system.cpu2.num_fp_register_writes                 19                       # number of times the floating registers were written
system.cpu2.num_func_calls                          0                       # number of times a function call or return occured
system.cpu2.num_idle_cycles                         0                       # Number of idle cycles
system.cpu2.num_int_alu_accesses                    8                       # Number of integer alu accesses
system.cpu2.num_int_insts                           8                       # number of integer instructions
system.cpu2.num_int_register_reads                 24                       # number of times the integer registers were read
system.cpu2.num_int_register_writes                 0                       # number of times the integer registers were written
system.cpu2.num_load_insts                          7                       # Number of load instructions
system.cpu2.num_mem_refs                            8                       # number of memory refs
system.cpu2.num_store_insts                         1                       # Number of store instructions
system.cpu2.num_vec_alu_accesses                    0                       # Number of vector alu accesses
system.cpu2.num_vec_insts                           0                       # number of vector instructions
system.cpu2.num_vec_register_reads                  0                       # number of times the vector registers were read
system.cpu2.num_vec_register_writes                 0                       # number of times the vector registers were written
system.cpu2.op_class::No_OpClass                    0      0.00%      0.00% # Class of executed instruction
system.cpu2.op_class::IntAlu                        1      5.00%      5.00% # Class of executed instruction
system.cpu2.op_class::IntMult                       0      0.00%      5.00% # Class of executed instruction
system.cpu2.op_class::IntDiv                        0      0.00%      5.00% # Class of executed instruction
system.cpu2.op_class::FloatAdd                      0      0.00%      5.00% # Class of executed instruction
system.cpu2.op_class::FloatCmp                      0      0.00%      5.00% # Class of executed instruction
system.cpu2.op_class::FloatCvt                      0      0.00%      5.00% # Class of executed instruction
system.cpu2.op_class::FloatMult                     0      0.00%      5.00% # Class of executed instruction
system.cpu2.op_class::FloatMultAcc                  0      0.00%      5.00% # Class of executed instruction
system.cpu2.op_class::FloatDiv                      0      0.00%      5.00% # Class of executed instruction
system.cpu2.op_class::FloatMisc                     0      0.00%      5.00% # Class of executed instruction
system.cpu2.op_class::FloatSqrt                     0      0.00%      5.00% # Class of executed instruction
system.cpu2.op_class::SimdAdd                       0      0.00%      5.00% # Class of executed instruction
system.cpu2.op_class::SimdAddAcc                    0      0.00%      5.00% # Class of executed instruction
system.cpu2.op_class::SimdAlu                       0      0.00%      5.00% # Class of executed instruction
system.cpu2.op_class::SimdCmp                       0      0.00%      5.00% # Class of executed instruction
system.cpu2.op_class::SimdCvt                       0      0.00%      5.00% # Class of executed instruction
system.cpu2.op_class::SimdMisc                      0      0.00%      5.00% # Class of executed instruction
system.cpu2.op_class::SimdMult                      0      0.00%      5.00% # Class of executed instruction
system.cpu2.op_class::SimdMultAcc                   0      0.00%      5.00% # Class of executed instruction
system.cpu2.op_class::SimdShift                     0      0.00%      5.00% # Class of executed instruction
system.cpu2.op_class::SimdShiftAcc                  0      0.00%      5.00% # Class of executed instruction
system.cpu2.op_class::SimdDiv                       0      0.00%      5.00% # Class of executed instruction
system.cpu2.op_class::SimdSqrt                      0      0.00%      5.00% # Class of executed instruction
system.cpu2.op_class::SimdFloatAdd                  5     25.00%     30.00% # Class of executed instruction
system.cpu2.op_class::SimdFloatAlu                  0      0.00%     30.00% # Class of executed instruction
system.cpu2.op_class::SimdFloatCmp                  0      0.00%     30.00% # Class of executed instruction
system.cpu2.op_class::SimdFloatCvt                  0      0.00%     30.00% # Class of executed instruction
system.cpu2.op_class::SimdFloatDiv                  0      0.00%     30.00% # Class of executed instruction
system.cpu2.op_class::SimdFloatMisc                 0      0.00%     30.00% # Class of executed instruction
system.cpu2.op_class::SimdFloatMult                 6     30.00%     60.00% # Class of executed instruction
system.cpu2.op_class::SimdFloatMultAcc              0      0.00%     60.00% # Class of executed instruction
system.cpu2.op_class::SimdFloatSqrt                 0      0.00%     60.00% # Class of executed instruction
system.cpu2.op_class::SimdReduceAdd                 0      0.00%     60.00% # Class of executed instruction
system.cpu2.op_class::SimdReduceAlu                 0      0.00%     60.00% # Class of executed instruction
system.cpu2.op_class::SimdReduceCmp                 0      0.00%     60.00% # Class of executed instruction
system.cpu2.op_class::SimdFloatReduceAdd            0      0.00%     60.00% # Class of executed instruction
system.cpu2.op_class::SimdFloatReduceCmp            0      0.00%     60.00% # Class of executed instruction
system.cpu2.op_class::SimdAes                       0      0.00%     60.00% # Class of executed instruction
system.cpu2.op_class::SimdAesMix                    0      0.00%     60.00% # Class of executed instruction
system.cpu2.op_class::SimdSha1Hash                  0      0.00%     60.00% # Class of executed instruction
system.cpu2.op_class::SimdSha1Hash2                 0      0.00%     60.00% # Class of executed instruction
system.cpu2.op_class::SimdSha256Hash                0      0.00%     60.00% # Class of executed instruction
system.cpu2.op_class::SimdSha256Hash2               0      0.00%     60.00% # Class of executed instruction
system.cpu2.op_class::SimdShaSigma2                 0      0.00%     60.00% # Class of executed instruction
system.cpu2.op_class::SimdShaSigma3                 0      0.00%     60.00% # Class of executed instruction
system.cpu2.op_class::SimdPredAlu                   0      0.00%     60.00% # Class of executed instruction
system.cpu2.op_class::MemRead                       0      0.00%     60.00% # Class of executed instruction
system.cpu2.op_class::MemWrite                      0      0.00%     60.00% # Class of executed instruction
system.cpu2.op_class::FloatMemRead                  7     35.00%     95.00% # Class of executed instruction
system.cpu2.op_class::FloatMemWrite                 1      5.00%    100.00% # Class of executed instruction
system.cpu2.op_class::IprAccess                     0      0.00%    100.00% # Class of executed instruction
system.cpu2.op_class::InstPrefetch                  0      0.00%    100.00% # Class of executed instruction
system.cpu2.op_class::total                        20                       # Class of executed instruction
system.cpu2.workload.numSyscalls                    0                       # Number of system calls
system.cpu3.committedInsts                         19                       # Number of instructions committed
system.cpu3.committedOps                           20                       # Number of ops (including micro ops) committed
system.cpu3.idle_fraction                           0                       # Percentage of idle cycles
system.cpu3.l2bus.snoop_filter.hit_multi_requests            0                       # Number of requests hitting in the snoop filter with multiple (>1) holders of the requested data.
system.cpu3.l2bus.snoop_filter.hit_multi_snoops            0                       # Number of snoops hitting in the snoop filter with multiple (>1) holders of the requested data.
system.cpu3.l2bus.snoop_filter.hit_single_requests     12663716                       # Number of requests hitting in the snoop filter with a single holder of the requested data.
system.cpu3.l2bus.snoop_filter.hit_single_snoops      4656246                       # Number of snoops hitting in the snoop filter with a single holder of the requested data.
system.cpu3.l2bus.snoop_filter.tot_requests     21975809                       # Total number of requests made to the snoop filter.
system.cpu3.l2bus.snoop_filter.tot_snoops      4656246                       # Total number of snoops made to the snoop filter.
system.cpu3.mmucache.mmubus.snoop_filter.hit_multi_requests            0                       # Number of requests hitting in the snoop filter with multiple (>1) holders of the requested data.
system.cpu3.mmucache.mmubus.snoop_filter.hit_multi_snoops            0                       # Number of snoops hitting in the snoop filter with multiple (>1) holders of the requested data.
system.cpu3.mmucache.mmubus.snoop_filter.hit_single_requests            0                       # Number of requests hitting in the snoop filter with a single holder of the requested data.
system.cpu3.mmucache.mmubus.snoop_filter.hit_single_snoops            0                       # Number of snoops hitting in the snoop filter with a single holder of the requested data.
system.cpu3.mmucache.mmubus.snoop_filter.tot_requests            0                       # Total number of requests made to the snoop filter.
system.cpu3.mmucache.mmubus.snoop_filter.tot_snoops            0                       # Total number of snoops made to the snoop filter.
system.cpu3.not_idle_fraction                       1                       # Percentage of non-idle cycles
system.cpu3.numCycles                              30                       # number of cpu cycles simulated
system.cpu3.numWorkItemsCompleted                   0                       # number of work items this cpu completed
system.cpu3.numWorkItemsStarted                     0                       # number of work items this cpu started
system.cpu3.num_busy_cycles                        30                       # Number of busy cycles
system.cpu3.num_conditional_control_insts            0                       # number of instructions that are conditional controls
system.cpu3.num_fp_alu_accesses                    20                       # Number of float alu accesses
system.cpu3.num_fp_insts                           20                       # number of float instructions
system.cpu3.num_fp_register_reads                  36                       # number of times the floating registers were read
system.cpu3.num_fp_register_writes                 19                       # number of times the floating registers were written
system.cpu3.num_func_calls                          0                       # number of times a function call or return occured
system.cpu3.num_idle_cycles                         0                       # Number of idle cycles
system.cpu3.num_int_alu_accesses                    8                       # Number of integer alu accesses
system.cpu3.num_int_insts                           8                       # number of integer instructions
system.cpu3.num_int_register_reads                 24                       # number of times the integer registers were read
system.cpu3.num_int_register_writes                 0                       # number of times the integer registers were written
system.cpu3.num_load_insts                          7                       # Number of load instructions
system.cpu3.num_mem_refs                            8                       # number of memory refs
system.cpu3.num_store_insts                         1                       # Number of store instructions
system.cpu3.num_vec_alu_accesses                    0                       # Number of vector alu accesses
system.cpu3.num_vec_insts                           0                       # number of vector instructions
system.cpu3.num_vec_register_reads                  0                       # number of times the vector registers were read
system.cpu3.num_vec_register_writes                 0                       # number of times the vector registers were written
system.cpu3.op_class::No_OpClass                    0      0.00%      0.00% # Class of executed instruction
system.cpu3.op_class::IntAlu                        1      5.00%      5.00% # Class of executed instruction
system.cpu3.op_class::IntMult                       0      0.00%      5.00% # Class of executed instruction
system.cpu3.op_class::IntDiv                        0      0.00%      5.00% # Class of executed instruction
system.cpu3.op_class::FloatAdd                      0      0.00%      5.00% # Class of executed instruction
system.cpu3.op_class::FloatCmp                      0      0.00%      5.00% # Class of executed instruction
system.cpu3.op_class::FloatCvt                      0      0.00%      5.00% # Class of executed instruction
system.cpu3.op_class::FloatMult                     0      0.00%      5.00% # Class of executed instruction
system.cpu3.op_class::FloatMultAcc                  0      0.00%      5.00% # Class of executed instruction
system.cpu3.op_class::FloatDiv                      0      0.00%      5.00% # Class of executed instruction
system.cpu3.op_class::FloatMisc                     0      0.00%      5.00% # Class of executed instruction
system.cpu3.op_class::FloatSqrt                     0      0.00%      5.00% # Class of executed instruction
system.cpu3.op_class::SimdAdd                       0      0.00%      5.00% # Class of executed instruction
system.cpu3.op_class::SimdAddAcc                    0      0.00%      5.00% # Class of executed instruction
system.cpu3.op_class::SimdAlu                       0      0.00%      5.00% # Class of executed instruction
system.cpu3.op_class::SimdCmp                       0      0.00%      5.00% # Class of executed instruction
system.cpu3.op_class::SimdCvt                       0      0.00%      5.00% # Class of executed instruction
system.cpu3.op_class::SimdMisc                      0      0.00%      5.00% # Class of executed instruction
system.cpu3.op_class::SimdMult                      0      0.00%      5.00% # Class of executed instruction
system.cpu3.op_class::SimdMultAcc                   0      0.00%      5.00% # Class of executed instruction
system.cpu3.op_class::SimdShift                     0      0.00%      5.00% # Class of executed instruction
system.cpu3.op_class::SimdShiftAcc                  0      0.00%      5.00% # Class of executed instruction
system.cpu3.op_class::SimdDiv                       0      0.00%      5.00% # Class of executed instruction
system.cpu3.op_class::SimdSqrt                      0      0.00%      5.00% # Class of executed instruction
system.cpu3.op_class::SimdFloatAdd                  5     25.00%     30.00% # Class of executed instruction
system.cpu3.op_class::SimdFloatAlu                  0      0.00%     30.00% # Class of executed instruction
system.cpu3.op_class::SimdFloatCmp                  0      0.00%     30.00% # Class of executed instruction
system.cpu3.op_class::SimdFloatCvt                  0      0.00%     30.00% # Class of executed instruction
system.cpu3.op_class::SimdFloatDiv                  0      0.00%     30.00% # Class of executed instruction
system.cpu3.op_class::SimdFloatMisc                 0      0.00%     30.00% # Class of executed instruction
system.cpu3.op_class::SimdFloatMult                 6     30.00%     60.00% # Class of executed instruction
system.cpu3.op_class::SimdFloatMultAcc              0      0.00%     60.00% # Class of executed instruction
system.cpu3.op_class::SimdFloatSqrt                 0      0.00%     60.00% # Class of executed instruction
system.cpu3.op_class::SimdReduceAdd                 0      0.00%     60.00% # Class of executed instruction
system.cpu3.op_class::SimdReduceAlu                 0      0.00%     60.00% # Class of executed instruction
system.cpu3.op_class::SimdReduceCmp                 0      0.00%     60.00% # Class of executed instruction
system.cpu3.op_class::SimdFloatReduceAdd            0      0.00%     60.00% # Class of executed instruction
system.cpu3.op_class::SimdFloatReduceCmp            0      0.00%     60.00% # Class of executed instruction
system.cpu3.op_class::SimdAes                       0      0.00%     60.00% # Class of executed instruction
system.cpu3.op_class::SimdAesMix                    0      0.00%     60.00% # Class of executed instruction
system.cpu3.op_class::SimdSha1Hash                  0      0.00%     60.00% # Class of executed instruction
system.cpu3.op_class::SimdSha1Hash2                 0      0.00%     60.00% # Class of executed instruction
system.cpu3.op_class::SimdSha256Hash                0      0.00%     60.00% # Class of executed instruction
system.cpu3.op_class::SimdSha256Hash2               0      0.00%     60.00% # Class of executed instruction
system.cpu3.op_class::SimdShaSigma2                 0      0.00%     60.00% # Class of executed instruction
system.cpu3.op_class::SimdShaSigma3                 0      0.00%     60.00% # Class of executed instruction
system.cpu3.op_class::SimdPredAlu                   0      0.00%     60.00% # Class of executed instruction
system.cpu3.op_class::MemRead                       0      0.00%     60.00% # Class of executed instruction
system.cpu3.op_class::MemWrite                      0      0.00%     60.00% # Class of executed instruction
system.cpu3.op_class::FloatMemRead                  7     35.00%     95.00% # Class of executed instruction
system.cpu3.op_class::FloatMemWrite                 1      5.00%    100.00% # Class of executed instruction
system.cpu3.op_class::IprAccess                     0      0.00%    100.00% # Class of executed instruction
system.cpu3.op_class::InstPrefetch                  0      0.00%    100.00% # Class of executed instruction
system.cpu3.op_class::total                        20                       # Class of executed instruction
system.cpu3.workload.numSyscalls                    0                       # Number of system calls
system.l3bus.snoop_filter.hit_multi_requests            0                       # Number of requests hitting in the snoop filter with multiple (>1) holders of the requested data.
system.l3bus.snoop_filter.hit_multi_snoops            0                       # Number of snoops hitting in the snoop filter with multiple (>1) holders of the requested data.
system.l3bus.snoop_filter.hit_single_requests     38746915                       # Number of requests hitting in the snoop filter with a single holder of the requested data.
system.l3bus.snoop_filter.hit_single_snoops            0                       # Number of snoops hitting in the snoop filter with a single holder of the requested data.
system.l3bus.snoop_filter.tot_requests       77090405                       # Total number of requests made to the snoop filter.
system.l3bus.snoop_filter.tot_snoops                0                       # Total number of snoops made to the snoop filter.
system.membus.snoop_filter.hit_multi_requests            0                       # Number of requests hitting in the snoop filter with multiple (>1) holders of the requested data.
system.membus.snoop_filter.hit_multi_snoops            0                       # Number of snoops hitting in the snoop filter with multiple (>1) holders of the requested data.
system.membus.snoop_filter.hit_single_requests     22512357                       # Number of requests hitting in the snoop filter with a single holder of the requested data.
system.membus.snoop_filter.hit_single_snoops            0                       # Number of snoops hitting in the snoop filter with a single holder of the requested data.
system.membus.snoop_filter.tot_requests      45082232                       # Total number of requests made to the snoop filter.
system.membus.snoop_filter.tot_snoops               0                       # Total number of snoops made to the snoop filter.
system.switch_cpus0.cc_regfile_reads          9296857                       # number of cc regfile reads
system.switch_cpus0.cc_regfile_writes         4424129                       # number of cc regfile writes
system.switch_cpus0.committedInsts          249892081                       # Number of Instructions Simulated
system.switch_cpus0.committedOps            275056868                       # Number of Ops (including micro ops) Simulated
system.switch_cpus0.cpi                      4.998477                       # CPI: Cycles Per Instruction
system.switch_cpus0.cpi_total                4.998477                       # CPI: Total CPI of All Threads
system.switch_cpus0.fp_regfile_reads        454884137                       # number of floating regfile reads
system.switch_cpus0.fp_regfile_writes       206016882                       # number of floating regfile writes
system.switch_cpus0.idleCycles                   8496                       # Total number of cycles that the CPU has spent unscheduled due to idling
system.switch_cpus0.iew.branchMispredicts         6481                       # Number of branch mispredicts detected at execute
system.switch_cpus0.iew.exec_branches         1661001                       # Number of branches executed
system.switch_cpus0.iew.exec_nop                    0                       # number of nop insts executed
system.switch_cpus0.iew.exec_rate            0.287225                       # Inst execution rate
system.switch_cpus0.iew.exec_refs           192758322                       # number of memory reference insts executed
system.switch_cpus0.iew.exec_stores          31297119                       # Number of stores executed
system.switch_cpus0.iew.exec_swp                    0                       # number of swp insts executed
system.switch_cpus0.iew.iewBlockCycles      217255712                       # Number of cycles IEW is blocking
system.switch_cpus0.iew.iewDispLoadInsts     77960932                       # Number of dispatched load instructions
system.switch_cpus0.iew.iewDispNonSpecInsts            0                       # Number of dispatched non-speculative instructions
system.switch_cpus0.iew.iewDispSquashedInsts          347                       # Number of squashed instructions skipped by dispatch
system.switch_cpus0.iew.iewDispStoreInsts     31354025                       # Number of dispatched store instructions
system.switch_cpus0.iew.iewDispatchedInsts    275347157                       # Number of instructions dispatched to IQ
system.switch_cpus0.iew.iewExecLoadInsts    161461203                       # Number of load instructions executed
system.switch_cpus0.iew.iewExecSquashedInsts         1314                       # Number of squashed instructions skipped in execute
system.switch_cpus0.iew.iewExecutedInsts    358766695                       # Number of executed instructions
system.switch_cpus0.iew.iewIQFullEvents       1860131                       # Number of times the IQ has become full, causing a stall
system.switch_cpus0.iew.iewIdleCycles               0                       # Number of cycles IEW is idle
system.switch_cpus0.iew.iewLSQFullEvents    366917614                       # Number of times the LSQ has become full, causing a stall
system.switch_cpus0.iew.iewSquashCycles          7498                       # Number of cycles IEW is squashing
system.switch_cpus0.iew.iewUnblockCycles    369274712                       # Number of cycles IEW is unblocking
system.switch_cpus0.iew.memOrderViolationEvents         2157                       # Number of memory order violations
system.switch_cpus0.iew.predictedNotTakenIncorrect         6087                       # Number of branches that were predicted not taken incorrectly
system.switch_cpus0.iew.predictedTakenIncorrect          394                       # Number of branches that were predicted taken incorrectly
system.switch_cpus0.iew.wb_consumers        377959214                       # num instructions consuming a value
system.switch_cpus0.iew.wb_count            275207215                       # cumulative count of insts written-back
system.switch_cpus0.iew.wb_fanout            0.532227                       # average fanout of values written-back
system.switch_cpus0.iew.wb_producers        201160125                       # num instructions producing a value
system.switch_cpus0.iew.wb_rate              0.220328                       # insts written-back per cycle
system.switch_cpus0.iew.wb_sent             275208098                       # cumulative count of insts sent to commit
system.switch_cpus0.int_regfile_reads       421550799                       # number of integer regfile reads
system.switch_cpus0.int_regfile_writes       36233189                       # number of integer regfile writes
system.switch_cpus0.ipc                      0.200061                       # IPC: Instructions Per Cycle
system.switch_cpus0.ipc_total                0.200061                       # IPC: Total IPC of All Threads
system.switch_cpus0.iq.FU_type_0::No_OpClass            0      0.00%      0.00% # Type of FU issued
system.switch_cpus0.iq.FU_type_0::IntAlu     40322876     11.24%     11.24% # Type of FU issued
system.switch_cpus0.iq.FU_type_0::IntMult            0      0.00%     11.24% # Type of FU issued
system.switch_cpus0.iq.FU_type_0::IntDiv            0      0.00%     11.24% # Type of FU issued
system.switch_cpus0.iq.FU_type_0::FloatAdd            0      0.00%     11.24% # Type of FU issued
system.switch_cpus0.iq.FU_type_0::FloatCmp            0      0.00%     11.24% # Type of FU issued
system.switch_cpus0.iq.FU_type_0::FloatCvt            0      0.00%     11.24% # Type of FU issued
system.switch_cpus0.iq.FU_type_0::FloatMult            0      0.00%     11.24% # Type of FU issued
system.switch_cpus0.iq.FU_type_0::FloatMultAcc            0      0.00%     11.24% # Type of FU issued
system.switch_cpus0.iq.FU_type_0::FloatDiv            0      0.00%     11.24% # Type of FU issued
system.switch_cpus0.iq.FU_type_0::FloatMisc            0      0.00%     11.24% # Type of FU issued
system.switch_cpus0.iq.FU_type_0::FloatSqrt            0      0.00%     11.24% # Type of FU issued
system.switch_cpus0.iq.FU_type_0::SimdAdd            0      0.00%     11.24% # Type of FU issued
system.switch_cpus0.iq.FU_type_0::SimdAddAcc            0      0.00%     11.24% # Type of FU issued
system.switch_cpus0.iq.FU_type_0::SimdAlu        37224      0.01%     11.25% # Type of FU issued
system.switch_cpus0.iq.FU_type_0::SimdCmp            0      0.00%     11.25% # Type of FU issued
system.switch_cpus0.iq.FU_type_0::SimdCvt            0      0.00%     11.25% # Type of FU issued
system.switch_cpus0.iq.FU_type_0::SimdMisc            0      0.00%     11.25% # Type of FU issued
system.switch_cpus0.iq.FU_type_0::SimdMult            0      0.00%     11.25% # Type of FU issued
system.switch_cpus0.iq.FU_type_0::SimdMultAcc            0      0.00%     11.25% # Type of FU issued
system.switch_cpus0.iq.FU_type_0::SimdShift            0      0.00%     11.25% # Type of FU issued
system.switch_cpus0.iq.FU_type_0::SimdShiftAcc            0      0.00%     11.25% # Type of FU issued
system.switch_cpus0.iq.FU_type_0::SimdDiv            0      0.00%     11.25% # Type of FU issued
system.switch_cpus0.iq.FU_type_0::SimdSqrt            0      0.00%     11.25% # Type of FU issued
system.switch_cpus0.iq.FU_type_0::SimdFloatAdd     77247157     21.53%     32.78% # Type of FU issued
system.switch_cpus0.iq.FU_type_0::SimdFloatAlu            0      0.00%     32.78% # Type of FU issued
system.switch_cpus0.iq.FU_type_0::SimdFloatCmp            0      0.00%     32.78% # Type of FU issued
system.switch_cpus0.iq.FU_type_0::SimdFloatCvt            0      0.00%     32.78% # Type of FU issued
system.switch_cpus0.iq.FU_type_0::SimdFloatDiv      1487721      0.41%     33.20% # Type of FU issued
system.switch_cpus0.iq.FU_type_0::SimdFloatMisc            0      0.00%     33.20% # Type of FU issued
system.switch_cpus0.iq.FU_type_0::SimdFloatMult     46913781     13.08%     46.27% # Type of FU issued
system.switch_cpus0.iq.FU_type_0::SimdFloatMultAcc            0      0.00%     46.27% # Type of FU issued
system.switch_cpus0.iq.FU_type_0::SimdFloatSqrt            0      0.00%     46.27% # Type of FU issued
system.switch_cpus0.iq.FU_type_0::SimdReduceAdd            0      0.00%     46.27% # Type of FU issued
system.switch_cpus0.iq.FU_type_0::SimdReduceAlu            0      0.00%     46.27% # Type of FU issued
system.switch_cpus0.iq.FU_type_0::SimdReduceCmp            0      0.00%     46.27% # Type of FU issued
system.switch_cpus0.iq.FU_type_0::SimdFloatReduceAdd            0      0.00%     46.27% # Type of FU issued
system.switch_cpus0.iq.FU_type_0::SimdFloatReduceCmp            0      0.00%     46.27% # Type of FU issued
system.switch_cpus0.iq.FU_type_0::SimdAes            0      0.00%     46.27% # Type of FU issued
system.switch_cpus0.iq.FU_type_0::SimdAesMix            0      0.00%     46.27% # Type of FU issued
system.switch_cpus0.iq.FU_type_0::SimdSha1Hash            0      0.00%     46.27% # Type of FU issued
system.switch_cpus0.iq.FU_type_0::SimdSha1Hash2            0      0.00%     46.27% # Type of FU issued
system.switch_cpus0.iq.FU_type_0::SimdSha256Hash            0      0.00%     46.27% # Type of FU issued
system.switch_cpus0.iq.FU_type_0::SimdSha256Hash2            0      0.00%     46.27% # Type of FU issued
system.switch_cpus0.iq.FU_type_0::SimdShaSigma2            0      0.00%     46.27% # Type of FU issued
system.switch_cpus0.iq.FU_type_0::SimdShaSigma3            0      0.00%     46.27% # Type of FU issued
system.switch_cpus0.iq.FU_type_0::SimdPredAlu            0      0.00%     46.27% # Type of FU issued
system.switch_cpus0.iq.FU_type_0::MemRead     53883570     15.02%     61.29% # Type of FU issued
system.switch_cpus0.iq.FU_type_0::MemWrite       129147      0.04%     61.33% # Type of FU issued
system.switch_cpus0.iq.FU_type_0::FloatMemRead    107578475     29.99%     91.31% # Type of FU issued
system.switch_cpus0.iq.FU_type_0::FloatMemWrite     31168058      8.69%    100.00% # Type of FU issued
system.switch_cpus0.iq.FU_type_0::IprAccess            0      0.00%    100.00% # Type of FU issued
system.switch_cpus0.iq.FU_type_0::InstPrefetch            0      0.00%    100.00% # Type of FU issued
system.switch_cpus0.iq.FU_type_0::total     358768009                       # Type of FU issued
system.switch_cpus0.iq.fp_alu_accesses      322044633                       # Number of floating point alu accesses
system.switch_cpus0.iq.fp_inst_queue_reads    609825233                       # Number of floating instruction queue reads
system.switch_cpus0.iq.fp_inst_queue_wakeup_accesses    237184330                       # Number of floating instruction queue wakeup accesses
system.switch_cpus0.iq.fp_inst_queue_writes    237490839                       # Number of floating instruction queue writes
system.switch_cpus0.iq.fu_busy_cnt           44635079                       # FU busy when requested
system.switch_cpus0.iq.fu_busy_rate          0.124412                       # FU busy rate (busy events/executed inst)
system.switch_cpus0.iq.fu_full::No_OpClass            0      0.00%      0.00% # attempts to use FU when none available
system.switch_cpus0.iq.fu_full::IntAlu         490868      1.10%      1.10% # attempts to use FU when none available
system.switch_cpus0.iq.fu_full::IntMult             0      0.00%      1.10% # attempts to use FU when none available
system.switch_cpus0.iq.fu_full::IntDiv              0      0.00%      1.10% # attempts to use FU when none available
system.switch_cpus0.iq.fu_full::FloatAdd            0      0.00%      1.10% # attempts to use FU when none available
system.switch_cpus0.iq.fu_full::FloatCmp            0      0.00%      1.10% # attempts to use FU when none available
system.switch_cpus0.iq.fu_full::FloatCvt            0      0.00%      1.10% # attempts to use FU when none available
system.switch_cpus0.iq.fu_full::FloatMult            0      0.00%      1.10% # attempts to use FU when none available
system.switch_cpus0.iq.fu_full::FloatMultAcc            0      0.00%      1.10% # attempts to use FU when none available
system.switch_cpus0.iq.fu_full::FloatDiv            0      0.00%      1.10% # attempts to use FU when none available
system.switch_cpus0.iq.fu_full::FloatMisc            0      0.00%      1.10% # attempts to use FU when none available
system.switch_cpus0.iq.fu_full::FloatSqrt            0      0.00%      1.10% # attempts to use FU when none available
system.switch_cpus0.iq.fu_full::SimdAdd             0      0.00%      1.10% # attempts to use FU when none available
system.switch_cpus0.iq.fu_full::SimdAddAcc            0      0.00%      1.10% # attempts to use FU when none available
system.switch_cpus0.iq.fu_full::SimdAlu             0      0.00%      1.10% # attempts to use FU when none available
system.switch_cpus0.iq.fu_full::SimdCmp             0      0.00%      1.10% # attempts to use FU when none available
system.switch_cpus0.iq.fu_full::SimdCvt             0      0.00%      1.10% # attempts to use FU when none available
system.switch_cpus0.iq.fu_full::SimdMisc            0      0.00%      1.10% # attempts to use FU when none available
system.switch_cpus0.iq.fu_full::SimdMult            0      0.00%      1.10% # attempts to use FU when none available
system.switch_cpus0.iq.fu_full::SimdMultAcc            0      0.00%      1.10% # attempts to use FU when none available
system.switch_cpus0.iq.fu_full::SimdShift            0      0.00%      1.10% # attempts to use FU when none available
system.switch_cpus0.iq.fu_full::SimdShiftAcc            0      0.00%      1.10% # attempts to use FU when none available
system.switch_cpus0.iq.fu_full::SimdDiv             0      0.00%      1.10% # attempts to use FU when none available
system.switch_cpus0.iq.fu_full::SimdSqrt            0      0.00%      1.10% # attempts to use FU when none available
system.switch_cpus0.iq.fu_full::SimdFloatAdd      5077664     11.38%     12.48% # attempts to use FU when none available
system.switch_cpus0.iq.fu_full::SimdFloatAlu            0      0.00%     12.48% # attempts to use FU when none available
system.switch_cpus0.iq.fu_full::SimdFloatCmp            0      0.00%     12.48% # attempts to use FU when none available
system.switch_cpus0.iq.fu_full::SimdFloatCvt            0      0.00%     12.48% # attempts to use FU when none available
system.switch_cpus0.iq.fu_full::SimdFloatDiv            0      0.00%     12.48% # attempts to use FU when none available
system.switch_cpus0.iq.fu_full::SimdFloatMisc            0      0.00%     12.48% # attempts to use FU when none available
system.switch_cpus0.iq.fu_full::SimdFloatMult      5183332     11.61%     24.09% # attempts to use FU when none available
system.switch_cpus0.iq.fu_full::SimdFloatMultAcc            0      0.00%     24.09% # attempts to use FU when none available
system.switch_cpus0.iq.fu_full::SimdFloatSqrt            0      0.00%     24.09% # attempts to use FU when none available
system.switch_cpus0.iq.fu_full::SimdReduceAdd            0      0.00%     24.09% # attempts to use FU when none available
system.switch_cpus0.iq.fu_full::SimdReduceAlu            0      0.00%     24.09% # attempts to use FU when none available
system.switch_cpus0.iq.fu_full::SimdReduceCmp            0      0.00%     24.09% # attempts to use FU when none available
system.switch_cpus0.iq.fu_full::SimdFloatReduceAdd            0      0.00%     24.09% # attempts to use FU when none available
system.switch_cpus0.iq.fu_full::SimdFloatReduceCmp            0      0.00%     24.09% # attempts to use FU when none available
system.switch_cpus0.iq.fu_full::SimdAes             0      0.00%     24.09% # attempts to use FU when none available
system.switch_cpus0.iq.fu_full::SimdAesMix            0      0.00%     24.09% # attempts to use FU when none available
system.switch_cpus0.iq.fu_full::SimdSha1Hash            0      0.00%     24.09% # attempts to use FU when none available
system.switch_cpus0.iq.fu_full::SimdSha1Hash2            0      0.00%     24.09% # attempts to use FU when none available
system.switch_cpus0.iq.fu_full::SimdSha256Hash            0      0.00%     24.09% # attempts to use FU when none available
system.switch_cpus0.iq.fu_full::SimdSha256Hash2            0      0.00%     24.09% # attempts to use FU when none available
system.switch_cpus0.iq.fu_full::SimdShaSigma2            0      0.00%     24.09% # attempts to use FU when none available
system.switch_cpus0.iq.fu_full::SimdShaSigma3            0      0.00%     24.09% # attempts to use FU when none available
system.switch_cpus0.iq.fu_full::SimdPredAlu            0      0.00%     24.09% # attempts to use FU when none available
system.switch_cpus0.iq.fu_full::MemRead      10346092     23.18%     47.27% # attempts to use FU when none available
system.switch_cpus0.iq.fu_full::MemWrite        24753      0.06%     47.32% # attempts to use FU when none available
system.switch_cpus0.iq.fu_full::FloatMemRead     21794771     48.83%     96.15% # attempts to use FU when none available
system.switch_cpus0.iq.fu_full::FloatMemWrite      1717599      3.85%    100.00% # attempts to use FU when none available
system.switch_cpus0.iq.fu_full::IprAccess            0      0.00%    100.00% # attempts to use FU when none available
system.switch_cpus0.iq.fu_full::InstPrefetch            0      0.00%    100.00% # attempts to use FU when none available
system.switch_cpus0.iq.int_alu_accesses      81358455                       # Number of integer alu accesses
system.switch_cpus0.iq.int_inst_queue_reads   1401417498                       # Number of integer instruction queue reads
system.switch_cpus0.iq.int_inst_queue_wakeup_accesses     38022885                       # Number of integer instruction queue wakeup accesses
system.switch_cpus0.iq.int_inst_queue_writes     38148670                       # Number of integer instruction queue writes
system.switch_cpus0.iq.iqInstsAdded         275347157                       # Number of instructions added to the IQ (excludes non-spec)
system.switch_cpus0.iq.iqInstsIssued        358768009                       # Number of instructions issued
system.switch_cpus0.iq.iqSquashedInstsExamined       290195                       # Number of squashed instructions iterated over during squash; mainly for profiling
system.switch_cpus0.iq.iqSquashedInstsIssued          276                       # Number of squashed instructions issued
system.switch_cpus0.iq.iqSquashedOperandsExamined       468368                       # Number of squashed operands that are examined and possibly removed from graph
system.switch_cpus0.iq.issued_per_cycle::samples   1249071358                       # Number of insts issued each cycle
system.switch_cpus0.iq.issued_per_cycle::mean     0.287228                       # Number of insts issued each cycle
system.switch_cpus0.iq.issued_per_cycle::stdev     1.174604                       # Number of insts issued each cycle
system.switch_cpus0.iq.issued_per_cycle::underflows            0      0.00%      0.00% # Number of insts issued each cycle
system.switch_cpus0.iq.issued_per_cycle::0   1158778436     92.77%     92.77% # Number of insts issued each cycle
system.switch_cpus0.iq.issued_per_cycle::1     14759959      1.18%     93.95% # Number of insts issued each cycle
system.switch_cpus0.iq.issued_per_cycle::2     11731451      0.94%     94.89% # Number of insts issued each cycle
system.switch_cpus0.iq.issued_per_cycle::3      6886189      0.55%     95.44% # Number of insts issued each cycle
system.switch_cpus0.iq.issued_per_cycle::4     27447159      2.20%     97.64% # Number of insts issued each cycle
system.switch_cpus0.iq.issued_per_cycle::5      7888123      0.63%     98.27% # Number of insts issued each cycle
system.switch_cpus0.iq.issued_per_cycle::6      7493978      0.60%     98.87% # Number of insts issued each cycle
system.switch_cpus0.iq.issued_per_cycle::7      6995042      0.56%     99.43% # Number of insts issued each cycle
system.switch_cpus0.iq.issued_per_cycle::8      7091021      0.57%    100.00% # Number of insts issued each cycle
system.switch_cpus0.iq.issued_per_cycle::overflows            0      0.00%    100.00% # Number of insts issued each cycle
system.switch_cpus0.iq.issued_per_cycle::min_value            0                       # Number of insts issued each cycle
system.switch_cpus0.iq.issued_per_cycle::max_value            8                       # Number of insts issued each cycle
system.switch_cpus0.iq.issued_per_cycle::total   1249071358                       # Number of insts issued each cycle
system.switch_cpus0.iq.rate                  0.287226                       # Inst issue rate
system.switch_cpus0.iq.vec_alu_accesses             0                       # Number of vector alu accesses
system.switch_cpus0.iq.vec_inst_queue_reads            0                       # Number of vector instruction queue reads
system.switch_cpus0.iq.vec_inst_queue_wakeup_accesses            0                       # Number of vector instruction queue wakeup accesses
system.switch_cpus0.iq.vec_inst_queue_writes            0                       # Number of vector instruction queue writes
system.switch_cpus0.memDep0.conflictingLoads      2731802                       # Number of conflicting loads.
system.switch_cpus0.memDep0.conflictingStores       993384                       # Number of conflicting stores.
system.switch_cpus0.memDep0.insertedLoads     77960932                       # Number of loads inserted to the mem dependence unit.
system.switch_cpus0.memDep0.insertedStores     31354025                       # Number of stores inserted to the mem dependence unit.
system.switch_cpus0.misc_regfile_reads      201391840                       # number of misc regfile reads
system.switch_cpus0.misc_regfile_writes             1                       # number of misc regfile writes
system.switch_cpus0.numCycles              1249079854                       # number of cpu cycles simulated
system.switch_cpus0.numWorkItemsCompleted            0                       # number of work items this cpu completed
system.switch_cpus0.numWorkItemsStarted             0                       # number of work items this cpu started
system.switch_cpus0.timesIdled                     38                       # Number of times that the entire CPU went into an idle state and unscheduled itself
system.switch_cpus1.cc_regfile_reads          9296586                       # number of cc regfile reads
system.switch_cpus1.cc_regfile_writes         4423955                       # number of cc regfile writes
system.switch_cpus1.committedInsts          249885805                       # Number of Instructions Simulated
system.switch_cpus1.committedOps            275049971                       # Number of Ops (including micro ops) Simulated
system.switch_cpus1.cpi                      4.998603                       # CPI: Cycles Per Instruction
system.switch_cpus1.cpi_total                4.998603                       # CPI: Total CPI of All Threads
system.switch_cpus1.fp_regfile_reads        454872269                       # number of floating regfile reads
system.switch_cpus1.fp_regfile_writes       206011454                       # number of floating regfile writes
system.switch_cpus1.idleCycles                  10935                       # Total number of cycles that the CPU has spent unscheduled due to idling
system.switch_cpus1.iew.branchMispredicts         6482                       # Number of branch mispredicts detected at execute
system.switch_cpus1.iew.exec_branches         1660958                       # Number of branches executed
system.switch_cpus1.iew.exec_nop                    0                       # number of nop insts executed
system.switch_cpus1.iew.exec_rate            0.285332                       # Inst execution rate
system.switch_cpus1.iew.exec_refs           190397997                       # number of memory reference insts executed
system.switch_cpus1.iew.exec_stores          31296105                       # Number of stores executed
system.switch_cpus1.iew.exec_swp                    0                       # number of swp insts executed
system.switch_cpus1.iew.iewBlockCycles      212257870                       # Number of cycles IEW is blocking
system.switch_cpus1.iew.iewDispLoadInsts     77958575                       # Number of dispatched load instructions
system.switch_cpus1.iew.iewDispNonSpecInsts            0                       # Number of dispatched non-speculative instructions
system.switch_cpus1.iew.iewDispSquashedInsts          442                       # Number of squashed instructions skipped by dispatch
system.switch_cpus1.iew.iewDispStoreInsts     31352900                       # Number of dispatched store instructions
system.switch_cpus1.iew.iewDispatchedInsts    275339207                       # Number of instructions dispatched to IQ
system.switch_cpus1.iew.iewExecLoadInsts    159101892                       # Number of load instructions executed
system.switch_cpus1.iew.iewExecSquashedInsts         1512                       # Number of squashed instructions skipped in execute
system.switch_cpus1.iew.iewExecutedInsts    356402031                       # Number of executed instructions
system.switch_cpus1.iew.iewIQFullEvents       1819719                       # Number of times the IQ has become full, causing a stall
system.switch_cpus1.iew.iewIdleCycles               0                       # Number of cycles IEW is idle
system.switch_cpus1.iew.iewLSQFullEvents    369664119                       # Number of times the LSQ has become full, causing a stall
system.switch_cpus1.iew.iewSquashCycles          7506                       # Number of cycles IEW is squashing
system.switch_cpus1.iew.iewUnblockCycles    371981009                       # Number of cycles IEW is unblocking
system.switch_cpus1.iew.memOrderViolationEvents         2153                       # Number of memory order violations
system.switch_cpus1.iew.predictedNotTakenIncorrect         6088                       # Number of branches that were predicted not taken incorrectly
system.switch_cpus1.iew.predictedTakenIncorrect          394                       # Number of branches that were predicted taken incorrectly
system.switch_cpus1.iew.wb_consumers        377939559                       # num instructions consuming a value
system.switch_cpus1.iew.wb_count            275199303                       # cumulative count of insts written-back
system.switch_cpus1.iew.wb_fanout            0.532114                       # average fanout of values written-back
system.switch_cpus1.iew.wb_producers        201107109                       # num instructions producing a value
system.switch_cpus1.iew.wb_rate              0.220322                       # insts written-back per cycle
system.switch_cpus1.iew.wb_sent             275200213                       # cumulative count of insts sent to commit
system.switch_cpus1.int_regfile_reads       416828791                       # number of integer regfile reads
system.switch_cpus1.int_regfile_writes       36231789                       # number of integer regfile writes
system.switch_cpus1.ipc                      0.200056                       # IPC: Instructions Per Cycle
system.switch_cpus1.ipc_total                0.200056                       # IPC: Total IPC of All Threads
system.switch_cpus1.iq.FU_type_0::No_OpClass            0      0.00%      0.00% # Type of FU issued
system.switch_cpus1.iq.FU_type_0::IntAlu     40321746     11.31%     11.31% # Type of FU issued
system.switch_cpus1.iq.FU_type_0::IntMult            0      0.00%     11.31% # Type of FU issued
system.switch_cpus1.iq.FU_type_0::IntDiv            0      0.00%     11.31% # Type of FU issued
system.switch_cpus1.iq.FU_type_0::FloatAdd            0      0.00%     11.31% # Type of FU issued
system.switch_cpus1.iq.FU_type_0::FloatCmp            0      0.00%     11.31% # Type of FU issued
system.switch_cpus1.iq.FU_type_0::FloatCvt            0      0.00%     11.31% # Type of FU issued
system.switch_cpus1.iq.FU_type_0::FloatMult            0      0.00%     11.31% # Type of FU issued
system.switch_cpus1.iq.FU_type_0::FloatMultAcc            0      0.00%     11.31% # Type of FU issued
system.switch_cpus1.iq.FU_type_0::FloatDiv            0      0.00%     11.31% # Type of FU issued
system.switch_cpus1.iq.FU_type_0::FloatMisc            0      0.00%     11.31% # Type of FU issued
system.switch_cpus1.iq.FU_type_0::FloatSqrt            0      0.00%     11.31% # Type of FU issued
system.switch_cpus1.iq.FU_type_0::SimdAdd            0      0.00%     11.31% # Type of FU issued
system.switch_cpus1.iq.FU_type_0::SimdAddAcc            0      0.00%     11.31% # Type of FU issued
system.switch_cpus1.iq.FU_type_0::SimdAlu        37214      0.01%     11.32% # Type of FU issued
system.switch_cpus1.iq.FU_type_0::SimdCmp            0      0.00%     11.32% # Type of FU issued
system.switch_cpus1.iq.FU_type_0::SimdCvt            0      0.00%     11.32% # Type of FU issued
system.switch_cpus1.iq.FU_type_0::SimdMisc            0      0.00%     11.32% # Type of FU issued
system.switch_cpus1.iq.FU_type_0::SimdMult            0      0.00%     11.32% # Type of FU issued
system.switch_cpus1.iq.FU_type_0::SimdMultAcc            0      0.00%     11.32% # Type of FU issued
system.switch_cpus1.iq.FU_type_0::SimdShift            0      0.00%     11.32% # Type of FU issued
system.switch_cpus1.iq.FU_type_0::SimdShiftAcc            0      0.00%     11.32% # Type of FU issued
system.switch_cpus1.iq.FU_type_0::SimdDiv            0      0.00%     11.32% # Type of FU issued
system.switch_cpus1.iq.FU_type_0::SimdSqrt            0      0.00%     11.32% # Type of FU issued
system.switch_cpus1.iq.FU_type_0::SimdFloatAdd     77245187     21.67%     33.00% # Type of FU issued
system.switch_cpus1.iq.FU_type_0::SimdFloatAlu            0      0.00%     33.00% # Type of FU issued
system.switch_cpus1.iq.FU_type_0::SimdFloatCmp            0      0.00%     33.00% # Type of FU issued
system.switch_cpus1.iq.FU_type_0::SimdFloatCvt            0      0.00%     33.00% # Type of FU issued
system.switch_cpus1.iq.FU_type_0::SimdFloatDiv      1487682      0.42%     33.41% # Type of FU issued
system.switch_cpus1.iq.FU_type_0::SimdFloatMisc            0      0.00%     33.41% # Type of FU issued
system.switch_cpus1.iq.FU_type_0::SimdFloatMult     46912592     13.16%     46.58% # Type of FU issued
system.switch_cpus1.iq.FU_type_0::SimdFloatMultAcc            0      0.00%     46.58% # Type of FU issued
system.switch_cpus1.iq.FU_type_0::SimdFloatSqrt            0      0.00%     46.58% # Type of FU issued
system.switch_cpus1.iq.FU_type_0::SimdReduceAdd            0      0.00%     46.58% # Type of FU issued
system.switch_cpus1.iq.FU_type_0::SimdReduceAlu            0      0.00%     46.58% # Type of FU issued
system.switch_cpus1.iq.FU_type_0::SimdReduceCmp            0      0.00%     46.58% # Type of FU issued
system.switch_cpus1.iq.FU_type_0::SimdFloatReduceAdd            0      0.00%     46.58% # Type of FU issued
system.switch_cpus1.iq.FU_type_0::SimdFloatReduceCmp            0      0.00%     46.58% # Type of FU issued
system.switch_cpus1.iq.FU_type_0::SimdAes            0      0.00%     46.58% # Type of FU issued
system.switch_cpus1.iq.FU_type_0::SimdAesMix            0      0.00%     46.58% # Type of FU issued
system.switch_cpus1.iq.FU_type_0::SimdSha1Hash            0      0.00%     46.58% # Type of FU issued
system.switch_cpus1.iq.FU_type_0::SimdSha1Hash2            0      0.00%     46.58% # Type of FU issued
system.switch_cpus1.iq.FU_type_0::SimdSha256Hash            0      0.00%     46.58% # Type of FU issued
system.switch_cpus1.iq.FU_type_0::SimdSha256Hash2            0      0.00%     46.58% # Type of FU issued
system.switch_cpus1.iq.FU_type_0::SimdShaSigma2            0      0.00%     46.58% # Type of FU issued
system.switch_cpus1.iq.FU_type_0::SimdShaSigma3            0      0.00%     46.58% # Type of FU issued
system.switch_cpus1.iq.FU_type_0::SimdPredAlu            0      0.00%     46.58% # Type of FU issued
system.switch_cpus1.iq.FU_type_0::MemRead     52851642     14.83%     61.41% # Type of FU issued
system.switch_cpus1.iq.FU_type_0::MemWrite       129186      0.04%     61.44% # Type of FU issued
system.switch_cpus1.iq.FU_type_0::FloatMemRead    106251251     29.81%     91.26% # Type of FU issued
system.switch_cpus1.iq.FU_type_0::FloatMemWrite     31167043      8.74%    100.00% # Type of FU issued
system.switch_cpus1.iq.FU_type_0::IprAccess            0      0.00%    100.00% # Type of FU issued
system.switch_cpus1.iq.FU_type_0::InstPrefetch            0      0.00%    100.00% # Type of FU issued
system.switch_cpus1.iq.FU_type_0::total     356403543                       # Type of FU issued
[...]
system.switch_cpus3.commit.numCommittedDist::mean     0.220310                       # Number of insts commited each cycle
system.switch_cpus3.commit.numCommittedDist::stdev     1.179099                       # Number of insts commited each cycle
system.switch_cpus3.commit.numCommittedDist::underflows            0      0.00%      0.00% # Number of insts commited each cycle
system.switch_cpus3.commit.numCommittedDist::0   1186178550     94.97%     94.97% # Number of insts commited each cycle
system.switch_cpus3.commit.numCommittedDist::1     18763764      1.50%     96.47% # Number of insts commited each cycle
system.switch_cpus3.commit.numCommittedDist::2      8001562      0.64%     97.11% # Number of insts commited each cycle
system.switch_cpus3.commit.numCommittedDist::3      5625250      0.45%     97.56% # Number of insts commited each cycle
system.switch_cpus3.commit.numCommittedDist::4      3013483      0.24%     97.80% # Number of insts commited each cycle
system.switch_cpus3.commit.numCommittedDist::5      1654389      0.13%     97.94% # Number of insts commited each cycle
system.switch_cpus3.commit.numCommittedDist::6      1161170      0.09%     98.03% # Number of insts commited each cycle
system.switch_cpus3.commit.numCommittedDist::7       793858      0.06%     98.09% # Number of insts commited each cycle
system.switch_cpus3.commit.numCommittedDist::8     23835001      1.91%    100.00% # Number of insts commited each cycle
system.switch_cpus3.commit.numCommittedDist::overflows            0      0.00%    100.00% # Number of insts commited each cycle
system.switch_cpus3.commit.numCommittedDist::min_value            0                       # Number of insts commited each cycle
system.switch_cpus3.commit.numCommittedDist::max_value            8                       # Number of insts commited each cycle
system.switch_cpus3.commit.numCommittedDist::total   1249027027                       # Number of insts commited each cycle
system.switch_cpus3.commit.instsCommitted    249997317                       # Number of instructions committed
system.switch_cpus3.commit.opsCommitted     275172549                       # Number of ops (including micro ops) committed
system.switch_cpus3.commit.memRefs          109118291                       # Number of memory references committed
system.switch_cpus3.commit.loads             77816265                       # Number of loads committed
system.switch_cpus3.commit.amos                     0                       # Number of atomic instructions committed
system.switch_cpus3.commit.membars                  0                       # Number of memory barriers committed
system.switch_cpus3.commit.branches           1661396                       # Number of branches committed
system.switch_cpus3.commit.vector                   0                       # Number of committed Vector instructions.
system.switch_cpus3.commit.floating         237253428                       # Number of committed floating point instructions.
system.switch_cpus3.commit.integer          126085050                       # Number of committed integer instructions.
system.switch_cpus3.commit.functionCalls            2                       # Number of function calls committed.
system.switch_cpus3.commit.committedInstType_0::No_OpClass            0      0.00%      0.00% # Class of committed instruction
system.switch_cpus3.commit.committedInstType_0::IntAlu     40322978     14.65%     14.65% # Class of committed instruction
system.switch_cpus3.commit.committedInstType_0::IntMult            0      0.00%     14.65% # Class of committed instruction
system.switch_cpus3.commit.committedInstType_0::IntDiv            0      0.00%     14.65% # Class of committed instruction
system.switch_cpus3.commit.committedInstType_0::FloatAdd            0      0.00%     14.65% # Class of committed instruction
system.switch_cpus3.commit.committedInstType_0::FloatCmp            0      0.00%     14.65% # Class of committed instruction
system.switch_cpus3.commit.committedInstType_0::FloatCvt            0      0.00%     14.65% # Class of committed instruction
system.switch_cpus3.commit.committedInstType_0::FloatMult            0      0.00%     14.65% # Class of committed instruction
system.switch_cpus3.commit.committedInstType_0::FloatMultAcc            0      0.00%     14.65% # Class of committed instruction
system.switch_cpus3.commit.committedInstType_0::FloatDiv            0      0.00%     14.65% # Class of committed instruction
system.switch_cpus3.commit.committedInstType_0::FloatMisc            0      0.00%     14.65% # Class of committed instruction
system.switch_cpus3.commit.committedInstType_0::FloatSqrt            0      0.00%     14.65% # Class of committed instruction
system.switch_cpus3.commit.committedInstType_0::SimdAdd            0      0.00%     14.65% # Class of committed instruction
system.switch_cpus3.commit.committedInstType_0::SimdAddAcc            0      0.00%     14.65% # Class of committed instruction
system.switch_cpus3.commit.committedInstType_0::SimdAlu        36864      0.01%     14.67% # Class of committed instruction
system.switch_cpus3.commit.committedInstType_0::SimdCmp            0      0.00%     14.67% # Class of committed instruction
system.switch_cpus3.commit.committedInstType_0::SimdCvt            0      0.00%     14.67% # Class of committed instruction
system.switch_cpus3.commit.committedInstType_0::SimdMisc            0      0.00%     14.67% # Class of committed instruction
system.switch_cpus3.commit.committedInstType_0::SimdMult            0      0.00%     14.67% # Class of committed instruction
system.switch_cpus3.commit.committedInstType_0::SimdMultAcc            0      0.00%     14.67% # Class of committed instruction
system.switch_cpus3.commit.committedInstType_0::SimdShift            0      0.00%     14.67% # Class of committed instruction
system.switch_cpus3.commit.committedInstType_0::SimdShiftAcc            0      0.00%     14.67% # Class of committed instruction
system.switch_cpus3.commit.committedInstType_0::SimdDiv            0      0.00%     14.67% # Class of committed instruction
system.switch_cpus3.commit.committedInstType_0::SimdSqrt            0      0.00%     14.67% # Class of committed instruction
system.switch_cpus3.commit.committedInstType_0::SimdFloatAdd     77272439     28.08%     42.75% # Class of committed instruction
system.switch_cpus3.commit.committedInstType_0::SimdFloatAlu            0      0.00%     42.75% # Class of committed instruction
system.switch_cpus3.commit.committedInstType_0::SimdFloatCmp            0      0.00%     42.75% # Class of committed instruction
system.switch_cpus3.commit.committedInstType_0::SimdFloatCvt            0      0.00%     42.75% # Class of committed instruction
system.switch_cpus3.commit.committedInstType_0::SimdFloatDiv      1488372      0.54%     43.29% # Class of committed instruction
system.switch_cpus3.commit.committedInstType_0::SimdFloatMisc            0      0.00%     43.29% # Class of committed instruction
system.switch_cpus3.commit.committedInstType_0::SimdFloatMult     46933605     17.06%     60.35% # Class of committed instruction
system.switch_cpus3.commit.committedInstType_0::SimdFloatMultAcc            0      0.00%     60.35% # Class of committed instruction
system.switch_cpus3.commit.committedInstType_0::SimdFloatSqrt            0      0.00%     60.35% # Class of committed instruction
system.switch_cpus3.commit.committedInstType_0::SimdReduceAdd            0      0.00%     60.35% # Class of committed instruction
system.switch_cpus3.commit.committedInstType_0::SimdReduceAlu            0      0.00%     60.35% # Class of committed instruction
system.switch_cpus3.commit.committedInstType_0::SimdReduceCmp            0      0.00%     60.35% # Class of committed instruction
system.switch_cpus3.commit.committedInstType_0::SimdFloatReduceAdd            0      0.00%     60.35% # Class of committed instruction
system.switch_cpus3.commit.committedInstType_0::SimdFloatReduceCmp            0      0.00%     60.35% # Class of committed instruction
system.switch_cpus3.commit.committedInstType_0::SimdAes            0      0.00%     60.35% # Class of committed instruction
system.switch_cpus3.commit.committedInstType_0::SimdAesMix            0      0.00%     60.35% # Class of committed instruction
system.switch_cpus3.commit.committedInstType_0::SimdSha1Hash            0      0.00%     60.35% # Class of committed instruction
system.switch_cpus3.commit.committedInstType_0::SimdSha1Hash2            0      0.00%     60.35% # Class of committed instruction
system.switch_cpus3.commit.committedInstType_0::SimdSha256Hash            0      0.00%     60.35% # Class of committed instruction
system.switch_cpus3.commit.committedInstType_0::SimdSha256Hash2            0      0.00%     60.35% # Class of committed instruction
system.switch_cpus3.commit.committedInstType_0::SimdShaSigma2            0      0.00%     60.35% # Class of committed instruction
system.switch_cpus3.commit.committedInstType_0::SimdShaSigma3            0      0.00%     60.35% # Class of committed instruction
system.switch_cpus3.commit.committedInstType_0::SimdPredAlu            0      0.00%     60.35% # Class of committed instruction
system.switch_cpus3.commit.committedInstType_0::MemRead     20823334      7.57%     67.91% # Class of committed instruction
system.switch_cpus3.commit.committedInstType_0::MemWrite       129028      0.05%     67.96% # Class of committed instruction
system.switch_cpus3.commit.committedInstType_0::FloatMemRead     56992931     20.71%     88.67% # Class of committed instruction
system.switch_cpus3.commit.committedInstType_0::FloatMemWrite     31172998     11.33%    100.00% # Class of committed instruction
system.switch_cpus3.commit.committedInstType_0::IprAccess            0      0.00%    100.00% # Class of committed instruction
system.switch_cpus3.commit.committedInstType_0::InstPrefetch            0      0.00%    100.00% # Class of committed instruction
system.switch_cpus3.commit.committedInstType_0::total    275172549                       # Class of committed instruction
system.switch_cpus3.commit.commitEligibleSamples     23835001                       # number cycles where commit BW limit reached
system.switch_cpus3.decode.idleCycles         5104378                       # Number of cycles decode is idle
system.switch_cpus3.decode.blockedCycles   1209274831                       # Number of cycles decode is blocked
system.switch_cpus3.decode.runCycles         23055467                       # Number of cycles decode is running
system.switch_cpus3.decode.unblockCycles     11626375                       # Number of cycles decode is unblocking
system.switch_cpus3.decode.squashCycles          7501                       # Number of cycles decode is squashing
system.switch_cpus3.decode.branchResolved       608563                       # Number of times decode resolved a  branch
system.switch_cpus3.decode.branchMispred            5                       # Number of times decode detected a branch misprediction
system.switch_cpus3.decode.decodedInsts     275511273                       # Number of instructions handled by decode
system.switch_cpus3.decode.squashedInsts           25                       # Number of squashed instructions handled by decode
system.switch_cpus3.dtb.rdAccesses           77991447                       # TLB accesses on read requests
system.switch_cpus3.dtb.wrAccesses           31309967                       # TLB accesses on write requests
system.switch_cpus3.dtb.rdMisses                83149                       # TLB misses on read requests
system.switch_cpus3.dtb.wrMisses                 5069                       # TLB misses on write requests
system.switch_cpus3.dtb.walker.power_state.pwrStateResidencyTicks::UNDEFINED 14134996196991                       # Cumulative time (in ticks) in various power states
system.switch_cpus3.fetch.icacheStallCycles        14239                       # Number of cycles fetch is stalled on an Icache miss
system.switch_cpus3.fetch.insts             250617387                       # Number of instructions fetch has processed
system.switch_cpus3.fetch.branches            1668003                       # Number of branches that fetch encountered
system.switch_cpus3.fetch.predictedBranches       614728                       # Number of branches that fetch has predicted taken
system.switch_cpus3.fetch.cycles           1249046843                       # Number of cycles fetch has run and was not squashing or blocked
system.switch_cpus3.fetch.squashCycles          15012                       # Number of cycles fetch has spent squashing
system.switch_cpus3.fetch.cacheLines         21912617                       # Number of cache lines fetched
system.switch_cpus3.fetch.icacheSquashes            6                       # Number of outstanding Icache misses that were squashed
system.switch_cpus3.fetch.nisnDist::samples   1249068588                       # Number of instructions fetched each cycle (Total)
system.switch_cpus3.fetch.nisnDist::mean     0.220843                       # Number of instructions fetched each cycle (Total)
system.switch_cpus3.fetch.nisnDist::stdev     1.205612                       # Number of instructions fetched each cycle (Total)
system.switch_cpus3.fetch.nisnDist::underflows            0      0.00%      0.00% # Number of instructions fetched each cycle (Total)
system.switch_cpus3.fetch.nisnDist::0      1202488383     96.27%     96.27% # Number of instructions fetched each cycle (Total)
system.switch_cpus3.fetch.nisnDist::1         2896614      0.23%     96.50% # Number of instructions fetched each cycle (Total)
system.switch_cpus3.fetch.nisnDist::2         1997925      0.16%     96.66% # Number of instructions fetched each cycle (Total)
system.switch_cpus3.fetch.nisnDist::3         2924712      0.23%     96.90% # Number of instructions fetched each cycle (Total)
system.switch_cpus3.fetch.nisnDist::4         5332944      0.43%     97.32% # Number of instructions fetched each cycle (Total)
system.switch_cpus3.fetch.nisnDist::5         5949306      0.48%     97.80% # Number of instructions fetched each cycle (Total)
system.switch_cpus3.fetch.nisnDist::6         3710430      0.30%     98.10% # Number of instructions fetched each cycle (Total)
system.switch_cpus3.fetch.nisnDist::7         3305046      0.26%     98.36% # Number of instructions fetched each cycle (Total)
system.switch_cpus3.fetch.nisnDist::8        20463228      1.64%    100.00% # Number of instructions fetched each cycle (Total)
system.switch_cpus3.fetch.nisnDist::overflows            0      0.00%    100.00% # Number of instructions fetched each cycle (Total)
system.switch_cpus3.fetch.nisnDist::min_value            0                       # Number of instructions fetched each cycle (Total)
system.switch_cpus3.fetch.nisnDist::max_value            8                       # Number of instructions fetched each cycle (Total)
system.switch_cpus3.fetch.nisnDist::total   1249068588                       # Number of instructions fetched each cycle (Total)
system.switch_cpus3.fetch.branchRate         0.001335                       # Number of branch fetches per cycle
system.switch_cpus3.fetch.rate               0.200642                       # Number of inst fetches per cycle
system.switch_cpus3.itb.rdAccesses                  0                       # TLB accesses on read requests
system.switch_cpus3.itb.wrAccesses           21912617                       # TLB accesses on write requests
system.switch_cpus3.itb.rdMisses                    0                       # TLB misses on read requests
system.switch_cpus3.itb.wrMisses                    4                       # TLB misses on write requests
system.switch_cpus3.itb.walker.power_state.pwrStateResidencyTicks::UNDEFINED 14134996196991                       # Cumulative time (in ticks) in various power states
system.switch_cpus3.lsq0.forwLoads           12507263                       # Number of loads that had data forwarded from stores
system.switch_cpus3.lsq0.squashedLoads         176759                       # Number of loads squashed
system.switch_cpus3.lsq0.ignoredResponses            8                       # Number of memory responses ignored because the instruction is squashed
system.switch_cpus3.lsq0.memOrderViolation         2158                       # Number of memory ordering violations
system.switch_cpus3.lsq0.squashedStores         64632                       # Number of stores squashed
system.switch_cpus3.lsq0.rescheduledLoads            0                       # Number of loads that were rescheduled
system.switch_cpus3.lsq0.blockedByCache       5265337                       # Number of times an access to memory failed due to the cache being blocked
system.switch_cpus3.power_state.pwrStateResidencyTicks::OFF 415943601705                       # Cumulative time (in ticks) in various power states
system.switch_cpus3.rename.squashCycles          7501                       # Number of cycles rename is squashing
system.switch_cpus3.rename.idleCycles        10173304                       # Number of cycles rename is idle
system.switch_cpus3.rename.blockCycles      598941245                       # Number of cycles rename is blocking
system.switch_cpus3.rename.serializeStallCycles            0                       # count of cycles rename stalledfor serializing inst
system.switch_cpus3.rename.runCycles         29134454                       # Number of cycles rename is running
system.switch_cpus3.rename.unblockCycles    610812048                       # Number of cycles rename is unblocking
system.switch_cpus3.rename.renamedInsts     275472185                       # Number of instructions processed by rename
system.switch_cpus3.rename.IQFullEvents      32545668                       # Number of times rename has blocked due to IQ full
system.switch_cpus3.rename.LQFullEvents     421273738                       # Number of times rename has blocked due to LQ full
system.switch_cpus3.rename.SQFullEvents     179543841                       # Number of times rename has blocked due to SQ full
system.switch_cpus3.rename.renamedOperands    246869016                       # Number of destination operands rename has renamed
system.switch_cpus3.rename.lookups          837292033                       # Number of register rename lookups that rename has made
system.switch_cpus3.rename.intLookups       254777296                       # Number of integer rename lookups
system.switch_cpus3.rename.fpLookups        455212659                       # Number of floating rename lookups
system.switch_cpus3.rename.committedMaps    246623451                       # Number of HB maps that are committed
system.switch_cpus3.rename.undoneMaps          245467                       # Number of HB maps that are undone due to squashing
system.switch_cpus3.rename.serializing              0                       # count of serializing insts renamed
system.switch_cpus3.rename.tempSerializing            0                       # count of temporary serializing insts renamed
system.switch_cpus3.rename.skidInsts         66574299                       # count of insts added to the skid buffer
system.switch_cpus3.rob.reads              1500656225                       # The number of ROB reads
system.switch_cpus3.rob.writes              550970071                       # The number of ROB writes
system.switch_cpus3.thread0.numInsts        249997317                       # Number of Instructions committed
system.switch_cpus3.thread0.numOps          275172549                       # Number of Ops committed
system.switch_cpus3.thread0.numMemRefs              0                       # Number of Memory References
system.voltage_domain.voltage                       1                       # Voltage in Volts

---------- End Simulation Statistics   ----------
