
---------- Begin Simulation Statistics ----------
final_tick                               14130285685551                       # Number of ticks from beginning of simulation (restored from checkpoints and never reset)
host_inst_rate                                  72490                       # Simulator instruction rate (inst/s)
host_mem_usage                               17296284                       # Number of bytes of host memory used
host_op_rate                                    79790                       # Simulator op (including micro ops) rate (op/s)
host_seconds                                 13791.88                       # Real time elapsed on the host
host_tick_rate                               29817049                       # Simulator tick rate (ticks/s)
sim_freq                                 1000000000000                       # Frequency of simulated ticks
sim_insts                                   999768948                       # Number of instructions simulated
sim_ops                                    1100448012                       # Number of ops (including micro ops) simulated
sim_seconds                                  0.411233                       # Number of seconds simulated
sim_ticks                                411233147874                       # Number of ticks simulated
system.cpu0.committedInsts                         19                       # Number of instructions committed
system.cpu0.committedOps                           21                       # Number of ops (including micro ops) committed
system.cpu0.idle_fraction                           0                       # Percentage of idle cycles
system.cpu0.l2bus.snoop_filter.hit_multi_requests            0                       # Number of requests hitting in the snoop filter with multiple (>1) holders of the requested data.
system.cpu0.l2bus.snoop_filter.hit_multi_snoops            0                       # Number of snoops hitting in the snoop filter with multiple (>1) holders of the requested data.
system.cpu0.l2bus.snoop_filter.hit_single_requests     12663457                       # Number of requests hitting in the snoop filter with a single holder of the requested data.
system.cpu0.l2bus.snoop_filter.hit_single_snoops      4663925                       # Number of snoops hitting in the snoop filter with a single holder of the requested data.
system.cpu0.l2bus.snoop_filter.tot_requests     21975579                       # Total number of requests made to the snoop filter.
system.cpu0.l2bus.snoop_filter.tot_snoops      4663925                       # Total number of snoops made to the snoop filter.
system.cpu0.mmucache.mmubus.snoop_filter.hit_multi_requests            0                       # Number of requests hitting in the snoop filter with multiple (>1) holders of the requested data.
system.cpu0.mmucache.mmubus.snoop_filter.hit_multi_snoops            0                       # Number of snoops hitting in the snoop filter with multiple (>1) holders of the requested data.
system.cpu0.mmucache.mmubus.snoop_filter.hit_single_requests            0                       # Number of requests hitting in the snoop filter with a single holder of the requested data.
system.cpu0.mmucache.mmubus.snoop_filter.hit_single_snoops            0                       # Number of snoops hitting in the snoop filter with a single holder of the requested data.
system.cpu0.mmucache.mmubus.snoop_filter.tot_requests            0                       # Total number of requests made to the snoop filter.
system.cpu0.mmucache.mmubus.snoop_filter.tot_snoops            0                       # Total number of snoops made to the snoop filter.
system.cpu0.not_idle_fraction                       1                       # Percentage of non-idle cycles
system.cpu0.numCycles                              31                       # number of cpu cycles simulated
system.cpu0.numWorkItemsCompleted                   0                       # number of work items this cpu completed
system.cpu0.numWorkItemsStarted                     0                       # number of work items this cpu started
system.cpu0.num_busy_cycles                        31                       # Number of busy cycles
system.cpu0.num_conditional_control_insts            0                       # number of instructions that are conditional controls
system.cpu0.num_fp_alu_accesses                    20                       # Number of float alu accesses
system.cpu0.num_fp_insts                           20                       # number of float instructions
system.cpu0.num_fp_register_reads                  54                       # number of times the floating registers were read
system.cpu0.num_fp_register_writes                 20                       # number of times the floating registers were written
system.cpu0.num_func_calls                          0                       # number of times a function call or return occured
system.cpu0.num_idle_cycles                         0                       # Number of idle cycles
system.cpu0.num_int_alu_accesses                    2                       # Number of integer alu accesses
system.cpu0.num_int_insts                           2                       # number of integer instructions
system.cpu0.num_int_register_reads                  4                       # number of times the integer registers were read
system.cpu0.num_int_register_writes                 1                       # number of times the integer registers were written
system.cpu0.num_load_insts                          1                       # Number of load instructions
system.cpu0.num_mem_refs                            1                       # number of memory refs
system.cpu0.num_store_insts                         0                       # Number of store instructions
system.cpu0.num_vec_alu_accesses                    0                       # Number of vector alu accesses
system.cpu0.num_vec_insts                           0                       # number of vector instructions
system.cpu0.num_vec_register_reads                  0                       # number of times the vector registers were read
system.cpu0.num_vec_register_writes                 0                       # number of times the vector registers were written
system.cpu0.op_class::No_OpClass                    0      0.00%      0.00% # Class of executed instruction
system.cpu0.op_class::IntAlu                        4     19.05%     19.05% # Class of executed instruction
system.cpu0.op_class::IntMult                       0      0.00%     19.05% # Class of executed instruction
system.cpu0.op_class::IntDiv                        0      0.00%     19.05% # Class of executed instruction
system.cpu0.op_class::FloatAdd                      0      0.00%     19.05% # Class of executed instruction
system.cpu0.op_class::FloatCmp                      0      0.00%     19.05% # Class of executed instruction
system.cpu0.op_class::FloatCvt                      0      0.00%     19.05% # Class of executed instruction
system.cpu0.op_class::FloatMult                     0      0.00%     19.05% # Class of executed instruction
system.cpu0.op_class::FloatMultAcc                  0      0.00%     19.05% # Class of executed instruction
system.cpu0.op_class::FloatDiv                      0      0.00%     19.05% # Class of executed instruction
system.cpu0.op_class::FloatMisc                     0      0.00%     19.05% # Class of executed instruction
system.cpu0.op_class::FloatSqrt                     0      0.00%     19.05% # Class of executed instruction
system.cpu0.op_class::SimdAdd                       0      0.00%     19.05% # Class of executed instruction
system.cpu0.op_class::SimdAddAcc                    0      0.00%     19.05% # Class of executed instruction
system.cpu0.op_class::SimdAlu                       0      0.00%     19.05% # Class of executed instruction
system.cpu0.op_class::SimdCmp                       0      0.00%     19.05% # Class of executed instruction
system.cpu0.op_class::SimdCvt                       0      0.00%     19.05% # Class of executed instruction
system.cpu0.op_class::SimdMisc                      0      0.00%     19.05% # Class of executed instruction
system.cpu0.op_class::SimdMult                      0      0.00%     19.05% # Class of executed instruction
system.cpu0.op_class::SimdMultAcc                   0      0.00%     19.05% # Class of executed instruction
system.cpu0.op_class::SimdShift                     0      0.00%     19.05% # Class of executed instruction
system.cpu0.op_class::SimdShiftAcc                  0      0.00%     19.05% # Class of executed instruction
system.cpu0.op_class::SimdDiv                       0      0.00%     19.05% # Class of executed instruction
system.cpu0.op_class::SimdSqrt                      0      0.00%     19.05% # Class of executed instruction
system.cpu0.op_class::SimdFloatAdd                  7     33.33%     52.38% # Class of executed instruction
system.cpu0.op_class::SimdFloatAlu                  0      0.00%     52.38% # Class of executed instruction
system.cpu0.op_class::SimdFloatCmp                  0      0.00%     52.38% # Class of executed instruction
system.cpu0.op_class::SimdFloatCvt                  0      0.00%     52.38% # Class of executed instruction
system.cpu0.op_class::SimdFloatDiv                  0      0.00%     52.38% # Class of executed instruction
system.cpu0.op_class::SimdFloatMisc                 0      0.00%     52.38% # Class of executed instruction
system.cpu0.op_class::SimdFloatMult                 9     42.86%     95.24% # Class of executed instruction
system.cpu0.op_class::SimdFloatMultAcc              0      0.00%     95.24% # Class of executed instruction
system.cpu0.op_class::SimdFloatSqrt                 0      0.00%     95.24% # Class of executed instruction
system.cpu0.op_class::SimdReduceAdd                 0      0.00%     95.24% # Class of executed instruction
system.cpu0.op_class::SimdReduceAlu                 0      0.00%     95.24% # Class of executed instruction
system.cpu0.op_class::SimdReduceCmp                 0      0.00%     95.24% # Class of executed instruction
system.cpu0.op_class::SimdFloatReduceAdd            0      0.00%     95.24% # Class of executed instruction
system.cpu0.op_class::SimdFloatReduceCmp            0      0.00%     95.24% # Class of executed instruction
system.cpu0.op_class::SimdAes                       0      0.00%     95.24% # Class of executed instruction
system.cpu0.op_class::SimdAesMix                    0      0.00%     95.24% # Class of executed instruction
system.cpu0.op_class::SimdSha1Hash                  0      0.00%     95.24% # Class of executed instruction
system.cpu0.op_class::SimdSha1Hash2                 0      0.00%     95.24% # Class of executed instruction
system.cpu0.op_class::SimdSha256Hash                0      0.00%     95.24% # Class of executed instruction
system.cpu0.op_class::SimdSha256Hash2               0      0.00%     95.24% # Class of executed instruction
system.cpu0.op_class::SimdShaSigma2                 0      0.00%     95.24% # Class of executed instruction
system.cpu0.op_class::SimdShaSigma3                 0      0.00%     95.24% # Class of executed instruction
system.cpu0.op_class::SimdPredAlu                   0      0.00%     95.24% # Class of executed instruction
system.cpu0.op_class::MemRead                       0      0.00%     95.24% # Class of executed instruction
system.cpu0.op_class::MemWrite                      0      0.00%     95.24% # Class of executed instruction
system.cpu0.op_class::FloatMemRead                  1      4.76%    100.00% # Class of executed instruction
system.cpu0.op_class::FloatMemWrite                 0      0.00%    100.00% # Class of executed instruction
system.cpu0.op_class::IprAccess                     0      0.00%    100.00% # Class of executed instruction
system.cpu0.op_class::InstPrefetch                  0      0.00%    100.00% # Class of executed instruction
system.cpu0.op_class::total                        21                       # Class of executed instruction
system.cpu0.workload.numSyscalls                    0                       # Number of system calls
system.cpu1.committedInsts                         19                       # Number of instructions committed
system.cpu1.committedOps                           21                       # Number of ops (including micro ops) committed
system.cpu1.idle_fraction                           0                       # Percentage of idle cycles
system.cpu1.l2bus.snoop_filter.hit_multi_requests            0                       # Number of requests hitting in the snoop filter with multiple (>1) holders of the requested data.
system.cpu1.l2bus.snoop_filter.hit_multi_snoops            0                       # Number of snoops hitting in the snoop filter with multiple (>1) holders of the requested data.
system.cpu1.l2bus.snoop_filter.hit_single_requests     12663493                       # Number of requests hitting in the snoop filter with a single holder of the requested data.
system.cpu1.l2bus.snoop_filter.hit_single_snoops      4655867                       # Number of snoops hitting in the snoop filter with a single holder of the requested data.
system.cpu1.l2bus.snoop_filter.tot_requests     21975520                       # Total number of requests made to the snoop filter.
system.cpu1.l2bus.snoop_filter.tot_snoops      4655867                       # Total number of snoops made to the snoop filter.
system.cpu1.mmucache.mmubus.snoop_filter.hit_multi_requests            0                       # Number of requests hitting in the snoop filter with multiple (>1) holders of the requested data.
system.cpu1.mmucache.mmubus.snoop_filter.hit_multi_snoops            0                       # Number of snoops hitting in the snoop filter with multiple (>1) holders of the requested data.
system.cpu1.mmucache.mmubus.snoop_filter.hit_single_requests            0                       # Number of requests hitting in the snoop filter with a single holder of the requested data.
system.cpu1.mmucache.mmubus.snoop_filter.hit_single_snoops            0                       # Number of snoops hitting in the snoop filter with a single holder of the requested data.
system.cpu1.mmucache.mmubus.snoop_filter.tot_requests            0                       # Total number of requests made to the snoop filter.
system.cpu1.mmucache.mmubus.snoop_filter.tot_snoops            0                       # Total number of snoops made to the snoop filter.
system.cpu1.not_idle_fraction                       1                       # Percentage of non-idle cycles
system.cpu1.numCycles                              31                       # number of cpu cycles simulated
system.cpu1.numWorkItemsCompleted                   0                       # number of work items this cpu completed
system.cpu1.numWorkItemsStarted                     0                       # number of work items this cpu started
system.cpu1.num_busy_cycles                        31                       # Number of busy cycles
system.cpu1.num_conditional_control_insts            0                       # number of instructions that are conditional controls
system.cpu1.num_fp_alu_accesses                    20                       # Number of float alu accesses
system.cpu1.num_fp_insts                           20                       # number of float instructions
system.cpu1.num_fp_register_reads                  54                       # number of times the floating registers were read
system.cpu1.num_fp_register_writes                 20                       # number of times the floating registers were written
system.cpu1.num_func_calls                          0                       # number of times a function call or return occured
system.cpu1.num_idle_cycles                         0                       # Number of idle cycles
system.cpu1.num_int_alu_accesses                    2                       # Number of integer alu accesses
system.cpu1.num_int_insts                           2                       # number of integer instructions
system.cpu1.num_int_register_reads                  4                       # number of times the integer registers were read
system.cpu1.num_int_register_writes                 1                       # number of times the integer registers were written
system.cpu1.num_load_insts                          1                       # Number of load instructions
system.cpu1.num_mem_refs                            1                       # number of memory refs
system.cpu1.num_store_insts                         0                       # Number of store instructions
system.cpu1.num_vec_alu_accesses                    0                       # Number of vector alu accesses
system.cpu1.num_vec_insts                           0                       # number of vector instructions
system.cpu1.num_vec_register_reads                  0                       # number of times the vector registers were read
system.cpu1.num_vec_register_writes                 0                       # number of times the vector registers were written
system.cpu1.op_class::No_OpClass                    0      0.00%      0.00% # Class of executed instruction
system.cpu1.op_class::IntAlu                        4     19.05%     19.05% # Class of executed instruction
system.cpu1.op_class::IntMult                       0      0.00%     19.05% # Class of executed instruction
system.cpu1.op_class::IntDiv                        0      0.00%     19.05% # Class of executed instruction
system.cpu1.op_class::FloatAdd                      0      0.00%     19.05% # Class of executed instruction
system.cpu1.op_class::FloatCmp                      0      0.00%     19.05% # Class of executed instruction
system.cpu1.op_class::FloatCvt                      0      0.00%     19.05% # Class of executed instruction
system.cpu1.op_class::FloatMult                     0      0.00%     19.05% # Class of executed instruction
system.cpu1.op_class::FloatMultAcc                  0      0.00%     19.05% # Class of executed instruction
system.cpu1.op_class::FloatDiv                      0      0.00%     19.05% # Class of executed instruction
system.cpu1.op_class::FloatMisc                     0      0.00%     19.05% # Class of executed instruction
system.cpu1.op_class::FloatSqrt                     0      0.00%     19.05% # Class of executed instruction
system.cpu1.op_class::SimdAdd                       0      0.00%     19.05% # Class of executed instruction
system.cpu1.op_class::SimdAddAcc                    0      0.00%     19.05% # Class of executed instruction
system.cpu1.op_class::SimdAlu                       0      0.00%     19.05% # Class of executed instruction
system.cpu1.op_class::SimdCmp                       0      0.00%     19.05% # Class of executed instruction
system.cpu1.op_class::SimdCvt                       0      0.00%     19.05% # Class of executed instruction
system.cpu1.op_class::SimdMisc                      0      0.00%     19.05% # Class of executed instruction
system.cpu1.op_class::SimdMult                      0      0.00%     19.05% # Class of executed instruction
system.cpu1.op_class::SimdMultAcc                   0      0.00%     19.05% # Class of executed instruction
system.cpu1.op_class::SimdShift                     0      0.00%     19.05% # Class of executed instruction
system.cpu1.op_class::SimdShiftAcc                  0      0.00%     19.05% # Class of executed instruction
system.cpu1.op_class::SimdDiv                       0      0.00%     19.05% # Class of executed instruction
system.cpu1.op_class::SimdSqrt                      0      0.00%     19.05% # Class of executed instruction
system.cpu1.op_class::SimdFloatAdd                  7     33.33%     52.38% # Class of executed instruction
system.cpu1.op_class::SimdFloatAlu                  0      0.00%     52.38% # Class of executed instruction
system.cpu1.op_class::SimdFloatCmp                  0      0.00%     52.38% # Class of executed instruction
system.cpu1.op_class::SimdFloatCvt                  0      0.00%     52.38% # Class of executed instruction
system.cpu1.op_class::SimdFloatDiv                  0      0.00%     52.38% # Class of executed instruction
system.cpu1.op_class::SimdFloatMisc                 0      0.00%     52.38% # Class of executed instruction
system.cpu1.op_class::SimdFloatMult                 9     42.86%     95.24% # Class of executed instruction
system.cpu1.op_class::SimdFloatMultAcc              0      0.00%     95.24% # Class of executed instruction
system.cpu1.op_class::SimdFloatSqrt                 0      0.00%     95.24% # Class of executed instruction
system.cpu1.op_class::SimdReduceAdd                 0      0.00%     95.24% # Class of executed instruction
system.cpu1.op_class::SimdReduceAlu                 0      0.00%     95.24% # Class of executed instruction
system.cpu1.op_class::SimdReduceCmp                 0      0.00%     95.24% # Class of executed instruction
system.cpu1.op_class::SimdFloatReduceAdd            0      0.00%     95.24% # Class of executed instruction
system.cpu1.op_class::SimdFloatReduceCmp            0      0.00%     95.24% # Class of executed instruction
system.cpu1.op_class::SimdAes                       0      0.00%     95.24% # Class of executed instruction
system.cpu1.op_class::SimdAesMix                    0      0.00%     95.24% # Class of executed instruction
system.cpu1.op_class::SimdSha1Hash                  0      0.00%     95.24% # Class of executed instruction
system.cpu1.op_class::SimdSha1Hash2                 0      0.00%     95.24% # Class of executed instruction
system.cpu1.op_class::SimdSha256Hash                0      0.00%     95.24% # Class of executed instruction
system.cpu1.op_class::SimdSha256Hash2               0      0.00%     95.24% # Class of executed instruction
system.cpu1.op_class::SimdShaSigma2                 0      0.00%     95.24% # Class of executed instruction
system.cpu1.op_class::SimdShaSigma3                 0      0.00%     95.24% # Class of executed instruction
system.cpu1.op_class::SimdPredAlu                   0      0.00%     95.24% # Class of executed instruction
system.cpu1.op_class::MemRead                       0      0.00%     95.24% # Class of executed instruction
system.cpu1.op_class::MemWrite                      0      0.00%     95.24% # Class of executed instruction
system.cpu1.op_class::FloatMemRead                  1      4.76%    100.00% # Class of executed instruction
system.cpu1.op_class::FloatMemWrite                 0      0.00%    100.00% # Class of executed instruction
system.cpu1.op_class::IprAccess                     0      0.00%    100.00% # Class of executed instruction
system.cpu1.op_class::InstPrefetch                  0      0.00%    100.00% # Class of executed instruction
system.cpu1.op_class::total                        21                       # Class of executed instruction
system.cpu1.workload.numSyscalls                    0                       # Number of system calls
system.cpu2.committedInsts                         19                       # Number of instructions committed
system.cpu2.committedOps                           21                       # Number of ops (including micro ops) committed
system.cpu2.idle_fraction                           0                       # Percentage of idle cycles
system.cpu2.l2bus.snoop_filter.hit_multi_requests            0                       # Number of requests hitting in the snoop filter with multiple (>1) holders of the requested data.
system.cpu2.l2bus.snoop_filter.hit_multi_snoops            0                       # Number of snoops hitting in the snoop filter with multiple (>1) holders of the requested data.
system.cpu2.l2bus.snoop_filter.hit_single_requests     12657793                       # Number of requests hitting in the snoop filter with a single holder of the requested data.
system.cpu2.l2bus.snoop_filter.hit_single_snoops      4660873                       # Number of snoops hitting in the snoop filter with a single holder of the requested data.
system.cpu2.l2bus.snoop_filter.tot_requests     21965913                       # Total number of requests made to the snoop filter.
system.cpu2.l2bus.snoop_filter.tot_snoops      4660873                       # Total number of snoops made to the snoop filter.
system.cpu2.mmucache.mmubus.snoop_filter.hit_multi_requests            0                       # Number of requests hitting in the snoop filter with multiple (>1) holders of the requested data.
system.cpu2.mmucache.mmubus.snoop_filter.hit_multi_snoops            0                       # Number of snoops hitting in the snoop filter with multiple (>1) holders of the requested data.
system.cpu2.mmucache.mmubus.snoop_filter.hit_single_requests            0                       # Number of requests hitting in the snoop filter with a single holder of the requested data.
system.cpu2.mmucache.mmubus.snoop_filter.hit_single_snoops            0                       # Number of snoops hitting in the snoop filter with a single holder of the requested data.
system.cpu2.mmucache.mmubus.snoop_filter.tot_requests            0                       # Total number of requests made to the snoop filter.
system.cpu2.mmucache.mmubus.snoop_filter.tot_snoops            0                       # Total number of snoops made to the snoop filter.
system.cpu2.not_idle_fraction                       1                       # Percentage of non-idle cycles
system.cpu2.numCycles                              31                       # number of cpu cycles simulated
system.cpu2.numWorkItemsCompleted                   0                       # number of work items this cpu completed
system.cpu2.numWorkItemsStarted                     0                       # number of work items this cpu started
system.cpu2.num_busy_cycles                        31                       # Number of busy cycles
system.cpu2.num_conditional_control_insts            0                       # number of instructions that are conditional controls
system.cpu2.num_fp_alu_accesses                    20                       # Number of float alu accesses
system.cpu2.num_fp_insts                           20                       # number of float instructions
system.cpu2.num_fp_register_reads                  54                       # number of times the floating registers were read
system.cpu2.num_fp_register_writes                 20                       # number of times the floating registers were written
system.cpu2.num_func_calls                          0                       # number of times a function call or return occured
system.cpu2.num_idle_cycles                         0                       # Number of idle cycles
system.cpu2.num_int_alu_accesses                    2                       # Number of integer alu accesses
system.cpu2.num_int_insts                           2                       # number of integer instructions
system.cpu2.num_int_register_reads                  4                       # number of times the integer registers were read
system.cpu2.num_int_register_writes                 1                       # number of times the integer registers were written
system.cpu2.num_load_insts                          1                       # Number of load instructions
system.cpu2.num_mem_refs                            1                       # number of memory refs
system.cpu2.num_store_insts                         0                       # Number of store instructions
system.cpu2.num_vec_alu_accesses                    0                       # Number of vector alu accesses
system.cpu2.num_vec_insts                           0                       # number of vector instructions
system.cpu2.num_vec_register_reads                  0                       # number of times the vector registers were read
system.cpu2.num_vec_register_writes                 0                       # number of times the vector registers were written
system.cpu2.op_class::No_OpClass                    0      0.00%      0.00% # Class of executed instruction
system.cpu2.op_class::IntAlu                        4     19.05%     19.05% # Class of executed instruction
system.cpu2.op_class::IntMult                       0      0.00%     19.05% # Class of executed instruction
system.cpu2.op_class::IntDiv                        0      0.00%     19.05% # Class of executed instruction
system.cpu2.op_class::FloatAdd                      0      0.00%     19.05% # Class of executed instruction
system.cpu2.op_class::FloatCmp                      0      0.00%     19.05% # Class of executed instruction
system.cpu2.op_class::FloatCvt                      0      0.00%     19.05% # Class of executed instruction
system.cpu2.op_class::FloatMult                     0      0.00%     19.05% # Class of executed instruction
system.cpu2.op_class::FloatMultAcc                  0      0.00%     19.05% # Class of executed instruction
system.cpu2.op_class::FloatDiv                      0      0.00%     19.05% # Class of executed instruction
system.cpu2.op_class::FloatMisc                     0      0.00%     19.05% # Class of executed instruction
system.cpu2.op_class::FloatSqrt                     0      0.00%     19.05% # Class of executed instruction
system.cpu2.op_class::SimdAdd                       0      0.00%     19.05% # Class of executed instruction
system.cpu2.op_class::SimdAddAcc                    0      0.00%     19.05% # Class of executed instruction
system.cpu2.op_class::SimdAlu                       0      0.00%     19.05% # Class of executed instruction
system.cpu2.op_class::SimdCmp                       0      0.00%     19.05% # Class of executed instruction
system.cpu2.op_class::SimdCvt                       0      0.00%     19.05% # Class of executed instruction
system.cpu2.op_class::SimdMisc                      0      0.00%     19.05% # Class of executed instruction
system.cpu2.op_class::SimdMult                      0      0.00%     19.05% # Class of executed instruction
system.cpu2.op_class::SimdMultAcc                   0      0.00%     19.05% # Class of executed instruction
system.cpu2.op_class::SimdShift                     0      0.00%     19.05% # Class of executed instruction
system.cpu2.op_class::SimdShiftAcc                  0      0.00%     19.05% # Class of executed instruction
system.cpu2.op_class::SimdDiv                       0      0.00%     19.05% # Class of executed instruction
system.cpu2.op_class::SimdSqrt                      0      0.00%     19.05% # Class of executed instruction
system.cpu2.op_class::SimdFloatAdd                  7     33.33%     52.38% # Class of executed instruction
system.cpu2.op_class::SimdFloatAlu                  0      0.00%     52.38% # Class of executed instruction
system.cpu2.op_class::SimdFloatCmp                  0      0.00%     52.38% # Class of executed instruction
system.cpu2.op_class::SimdFloatCvt                  0      0.00%     52.38% # Class of executed instruction
system.cpu2.op_class::SimdFloatDiv                  0      0.00%     52.38% # Class of executed instruction
system.cpu2.op_class::SimdFloatMisc                 0      0.00%     52.38% # Class of executed instruction
system.cpu2.op_class::SimdFloatMult                 9     42.86%     95.24% # Class of executed instruction
system.cpu2.op_class::SimdFloatMultAcc              0      0.00%     95.24% # Class of executed instruction
system.cpu2.op_class::SimdFloatSqrt                 0      0.00%     95.24% # Class of executed instruction
system.cpu2.op_class::SimdReduceAdd                 0      0.00%     95.24% # Class of executed instruction
system.cpu2.op_class::SimdReduceAlu                 0      0.00%     95.24% # Class of executed instruction
system.cpu2.op_class::SimdReduceCmp                 0      0.00%     95.24% # Class of executed instruction
system.cpu2.op_class::SimdFloatReduceAdd            0      0.00%     95.24% # Class of executed instruction
system.cpu2.op_class::SimdFloatReduceCmp            0      0.00%     95.24% # Class of executed instruction
system.cpu2.op_class::SimdAes                       0      0.00%     95.24% # Class of executed instruction
system.cpu2.op_class::SimdAesMix                    0      0.00%     95.24% # Class of executed instruction
system.cpu2.op_class::SimdSha1Hash                  0      0.00%     95.24% # Class of executed instruction
system.cpu2.op_class::SimdSha1Hash2                 0      0.00%     95.24% # Class of executed instruction
system.cpu2.op_class::SimdSha256Hash                0      0.00%     95.24% # Class of executed instruction
system.cpu2.op_class::SimdSha256Hash2               0      0.00%     95.24% # Class of executed instruction
system.cpu2.op_class::SimdShaSigma2                 0      0.00%     95.24% # Class of executed instruction
system.cpu2.op_class::SimdShaSigma3                 0      0.00%     95.24% # Class of executed instruction
system.cpu2.op_class::SimdPredAlu                   0      0.00%     95.24% # Class of executed instruction
system.cpu2.op_class::MemRead                       0      0.00%     95.24% # Class of executed instruction
system.cpu2.op_class::MemWrite                      0      0.00%     95.24% # Class of executed instruction
system.cpu2.op_class::FloatMemRead                  1      4.76%    100.00% # Class of executed instruction
system.cpu2.op_class::FloatMemWrite                 0      0.00%    100.00% # Class of executed instruction
system.cpu2.op_class::IprAccess                     0      0.00%    100.00% # Class of executed instruction
system.cpu2.op_class::InstPrefetch                  0      0.00%    100.00% # Class of executed instruction
system.cpu2.op_class::total                        21                       # Class of executed instruction
system.cpu2.workload.numSyscalls                    0                       # Number of system calls
system.cpu3.committedInsts                         19                       # Number of instructions committed
system.cpu3.committedOps                           21                       # Number of ops (including micro ops) committed
system.cpu3.idle_fraction                           0                       # Percentage of idle cycles
system.cpu3.l2bus.snoop_filter.hit_multi_requests            0                       # Number of requests hitting in the snoop filter with multiple (>1) holders of the requested data.
system.cpu3.l2bus.snoop_filter.hit_multi_snoops            0                       # Number of snoops hitting in the snoop filter with multiple (>1) holders of the requested data.
system.cpu3.l2bus.snoop_filter.hit_single_requests     12657524                       # Number of requests hitting in the snoop filter with a single holder of the requested data.
system.cpu3.l2bus.snoop_filter.hit_single_snoops      4655858                       # Number of snoops hitting in the snoop filter with a single holder of the requested data.
system.cpu3.l2bus.snoop_filter.tot_requests     21965523                       # Total number of requests made to the snoop filter.
system.cpu3.l2bus.snoop_filter.tot_snoops      4655858                       # Total number of snoops made to the snoop filter.
system.cpu3.mmucache.mmubus.snoop_filter.hit_multi_requests            0                       # Number of requests hitting in the snoop filter with multiple (>1) holders of the requested data.
system.cpu3.mmucache.mmubus.snoop_filter.hit_multi_snoops            0                       # Number of snoops hitting in the snoop filter with multiple (>1) holders of the requested data.
system.cpu3.mmucache.mmubus.snoop_filter.hit_single_requests            0                       # Number of requests hitting in the snoop filter with a single holder of the requested data.
system.cpu3.mmucache.mmubus.snoop_filter.hit_single_snoops            0                       # Number of snoops hitting in the snoop filter with a single holder of the requested data.
system.cpu3.mmucache.mmubus.snoop_filter.tot_requests            0                       # Total number of requests made to the snoop filter.
system.cpu3.mmucache.mmubus.snoop_filter.tot_snoops            0                       # Total number of snoops made to the snoop filter.
system.cpu3.not_idle_fraction                       1                       # Percentage of non-idle cycles
system.cpu3.numCycles                              31                       # number of cpu cycles simulated
system.cpu3.numWorkItemsCompleted                   0                       # number of work items this cpu completed
system.cpu3.numWorkItemsStarted                     0                       # number of work items this cpu started
system.cpu3.num_busy_cycles                        31                       # Number of busy cycles
system.cpu3.num_conditional_control_insts            0                       # number of instructions that are conditional controls
system.cpu3.num_fp_alu_accesses                    20                       # Number of float alu accesses
system.cpu3.num_fp_insts                           20                       # number of float instructions
system.cpu3.num_fp_register_reads                  54                       # number of times the floating registers were read
system.cpu3.num_fp_register_writes                 20                       # number of times the floating registers were written
system.cpu3.num_func_calls                          0                       # number of times a function call or return occured
system.cpu3.num_idle_cycles                         0                       # Number of idle cycles
system.cpu3.num_int_alu_accesses                    2                       # Number of integer alu accesses
system.cpu3.num_int_insts                           2                       # number of integer instructions
system.cpu3.num_int_register_reads                  4                       # number of times the integer registers were read
system.cpu3.num_int_register_writes                 1                       # number of times the integer registers were written
system.cpu3.num_load_insts                          1                       # Number of load instructions
system.cpu3.num_mem_refs                            1                       # number of memory refs
system.cpu3.num_store_insts                         0                       # Number of store instructions
system.cpu3.num_vec_alu_accesses                    0                       # Number of vector alu accesses
system.cpu3.num_vec_insts                           0                       # number of vector instructions
system.cpu3.num_vec_register_reads                  0                       # number of times the vector registers were read
system.cpu3.num_vec_register_writes                 0                       # number of times the vector registers were written
system.cpu3.op_class::No_OpClass                    0      0.00%      0.00% # Class of executed instruction
system.cpu3.op_class::IntAlu                        4     19.05%     19.05% # Class of executed instruction
system.cpu3.op_class::IntMult                       0      0.00%     19.05% # Class of executed instruction
system.cpu3.op_class::IntDiv                        0      0.00%     19.05% # Class of executed instruction
system.cpu3.op_class::FloatAdd                      0      0.00%     19.05% # Class of executed instruction
system.cpu3.op_class::FloatCmp                      0      0.00%     19.05% # Class of executed instruction
system.cpu3.op_class::FloatCvt                      0      0.00%     19.05% # Class of executed instruction
system.cpu3.op_class::FloatMult                     0      0.00%     19.05% # Class of executed instruction
system.cpu3.op_class::FloatMultAcc                  0      0.00%     19.05% # Class of executed instruction
system.cpu3.op_class::FloatDiv                      0      0.00%     19.05% # Class of executed instruction
system.cpu3.op_class::FloatMisc                     0      0.00%     19.05% # Class of executed instruction
system.cpu3.op_class::FloatSqrt                     0      0.00%     19.05% # Class of executed instruction
system.cpu3.op_class::SimdAdd                       0      0.00%     19.05% # Class of executed instruction
system.cpu3.op_class::SimdAddAcc                    0      0.00%     19.05% # Class of executed instruction
system.cpu3.op_class::SimdAlu                       0      0.00%     19.05% # Class of executed instruction
system.cpu3.op_class::SimdCmp                       0      0.00%     19.05% # Class of executed instruction
system.cpu3.op_class::SimdCvt                       0      0.00%     19.05% # Class of executed instruction
system.cpu3.op_class::SimdMisc                      0      0.00%     19.05% # Class of executed instruction
system.cpu3.op_class::SimdMult                      0      0.00%     19.05% # Class of executed instruction
system.cpu3.op_class::SimdMultAcc                   0      0.00%     19.05% # Class of executed instruction
system.cpu3.op_class::SimdShift                     0      0.00%     19.05% # Class of executed instruction
system.cpu3.op_class::SimdShiftAcc                  0      0.00%     19.05% # Class of executed instruction
system.cpu3.op_class::SimdDiv                       0      0.00%     19.05% # Class of executed instruction
system.cpu3.op_class::SimdSqrt                      0      0.00%     19.05% # Class of executed instruction
system.cpu3.op_class::SimdFloatAdd                  7     33.33%     52.38% # Class of executed instruction
system.cpu3.op_class::SimdFloatAlu                  0      0.00%     52.38% # Class of executed instruction
system.cpu3.op_class::SimdFloatCmp                  0      0.00%     52.38% # Class of executed instruction
system.cpu3.op_class::SimdFloatCvt                  0      0.00%     52.38% # Class of executed instruction
system.cpu3.op_class::SimdFloatDiv                  0      0.00%     52.38% # Class of executed instruction
system.cpu3.op_class::SimdFloatMisc                 0      0.00%     52.38% # Class of executed instruction
system.cpu3.op_class::SimdFloatMult                 9     42.86%     95.24% # Class of executed instruction
system.cpu3.op_class::SimdFloatMultAcc              0      0.00%     95.24% # Class of executed instruction
system.cpu3.op_class::SimdFloatSqrt                 0      0.00%     95.24% # Class of executed instruction
system.cpu3.op_class::SimdReduceAdd                 0      0.00%     95.24% # Class of executed instruction
system.cpu3.op_class::SimdReduceAlu                 0      0.00%     95.24% # Class of executed instruction
system.cpu3.op_class::SimdReduceCmp                 0      0.00%     95.24% # Class of executed instruction
system.cpu3.op_class::SimdFloatReduceAdd            0      0.00%     95.24% # Class of executed instruction
system.cpu3.op_class::SimdFloatReduceCmp            0      0.00%     95.24% # Class of executed instruction
system.cpu3.op_class::SimdAes                       0      0.00%     95.24% # Class of executed instruction
system.cpu3.op_class::SimdAesMix                    0      0.00%     95.24% # Class of executed instruction
system.cpu3.op_class::SimdSha1Hash                  0      0.00%     95.24% # Class of executed instruction
system.cpu3.op_class::SimdSha1Hash2                 0      0.00%     95.24% # Class of executed instruction
system.cpu3.op_class::SimdSha256Hash                0      0.00%     95.24% # Class of executed instruction
system.cpu3.op_class::SimdSha256Hash2               0      0.00%     95.24% # Class of executed instruction
system.cpu3.op_class::SimdShaSigma2                 0      0.00%     95.24% # Class of executed instruction
system.cpu3.op_class::SimdShaSigma3                 0      0.00%     95.24% # Class of executed instruction
system.cpu3.op_class::SimdPredAlu                   0      0.00%     95.24% # Class of executed instruction
system.cpu3.op_class::MemRead                       0      0.00%     95.24% # Class of executed instruction
system.cpu3.op_class::MemWrite                      0      0.00%     95.24% # Class of executed instruction
system.cpu3.op_class::FloatMemRead                  1      4.76%    100.00% # Class of executed instruction
system.cpu3.op_class::FloatMemWrite                 0      0.00%    100.00% # Class of executed instruction
system.cpu3.op_class::IprAccess                     0      0.00%    100.00% # Class of executed instruction
system.cpu3.op_class::InstPrefetch                  0      0.00%    100.00% # Class of executed instruction
system.cpu3.op_class::total                        21                       # Class of executed instruction
system.cpu3.workload.numSyscalls                    0                       # Number of system calls
system.l3bus.snoop_filter.hit_multi_requests            0                       # Number of requests hitting in the snoop filter with multiple (>1) holders of the requested data.
system.l3bus.snoop_filter.hit_multi_snoops            0                       # Number of snoops hitting in the snoop filter with multiple (>1) holders of the requested data.
system.l3bus.snoop_filter.hit_single_requests     38802786                       # Number of requests hitting in the snoop filter with a single holder of the requested data.
system.l3bus.snoop_filter.hit_single_snoops            0                       # Number of snoops hitting in the snoop filter with a single holder of the requested data.
system.l3bus.snoop_filter.tot_requests       77200277                       # Total number of requests made to the snoop filter.
system.l3bus.snoop_filter.tot_snoops                0                       # Total number of snoops made to the snoop filter.
system.membus.snoop_filter.hit_multi_requests            0                       # Number of requests hitting in the snoop filter with multiple (>1) holders of the requested data.
system.membus.snoop_filter.hit_multi_snoops            0                       # Number of snoops hitting in the snoop filter with multiple (>1) holders of the requested data.
system.membus.snoop_filter.hit_single_requests     22513205                       # Number of requests hitting in the snoop filter with a single holder of the requested data.
system.membus.snoop_filter.hit_single_snoops            0                       # Number of snoops hitting in the snoop filter with a single holder of the requested data.
system.membus.snoop_filter.tot_requests      45082956                       # Total number of requests made to the snoop filter.
system.membus.snoop_filter.tot_snoops               0                       # Total number of snoops made to the snoop filter.
system.switch_cpus0.cc_regfile_reads          9300661                       # number of cc regfile reads
system.switch_cpus0.cc_regfile_writes         4425915                       # number of cc regfile writes
system.switch_cpus0.committedInsts          250000001                       # Number of Instructions Simulated
system.switch_cpus0.committedOps            275175502                       # Number of Ops (including micro ops) Simulated
system.switch_cpus0.cpi                      4.939737                       # CPI: Cycles Per Instruction
system.switch_cpus0.cpi_total                4.939737                       # CPI: Total CPI of All Threads
system.switch_cpus0.fp_regfile_reads        455082583                       # number of floating regfile reads
system.switch_cpus0.fp_regfile_writes       206106276                       # number of floating regfile writes
system.switch_cpus0.idleCycles                  11963                       # Total number of cycles that the CPU has spent unscheduled due to idling
system.switch_cpus0.iew.branchMispredicts         6486                       # Number of branch mispredicts detected at execute
system.switch_cpus0.iew.exec_branches         1661672                       # Number of branches executed
system.switch_cpus0.iew.exec_nop                    0                       # number of nop insts executed
system.switch_cpus0.iew.exec_rate            0.289241                       # Inst execution rate
system.switch_cpus0.iew.exec_refs           191112529                       # number of memory reference insts executed
system.switch_cpus0.iew.exec_stores          31310139                       # Number of stores executed
system.switch_cpus0.iew.exec_swp                    0                       # number of swp insts executed
system.switch_cpus0.iew.iewBlockCycles      205498439                       # Number of cycles IEW is blocking
system.switch_cpus0.iew.iewDispLoadInsts     77994072                       # Number of dispatched load instructions
system.switch_cpus0.iew.iewDispNonSpecInsts            0                       # Number of dispatched non-speculative instructions
system.switch_cpus0.iew.iewDispSquashedInsts          382                       # Number of squashed instructions skipped by dispatch
system.switch_cpus0.iew.iewDispStoreInsts     31367139                       # Number of dispatched store instructions
system.switch_cpus0.iew.iewDispatchedInsts    275465448                       # Number of instructions dispatched to IQ
system.switch_cpus0.iew.iewExecLoadInsts    159802390                       # Number of load instructions executed
system.switch_cpus0.iew.iewExecSquashedInsts         1407                       # Number of squashed instructions skipped in execute
system.switch_cpus0.iew.iewExecutedInsts    357193042                       # Number of executed instructions
system.switch_cpus0.iew.iewIQFullEvents       1815815                       # Number of times the IQ has become full, causing a stall
system.switch_cpus0.iew.iewIdleCycles               0                       # Number of cycles IEW is idle
system.switch_cpus0.iew.iewLSQFullEvents    365140547                       # Number of times the LSQ has become full, causing a stall
system.switch_cpus0.iew.iewSquashCycles          7500                       # Number of cycles IEW is squashing
system.switch_cpus0.iew.iewUnblockCycles    367456038                       # Number of cycles IEW is unblocking
system.switch_cpus0.iew.memOrderViolationEvents         2167                       # Number of memory order violations
system.switch_cpus0.iew.predictedNotTakenIncorrect         6092                       # Number of branches that were predicted not taken incorrectly
system.switch_cpus0.iew.predictedTakenIncorrect          394                       # Number of branches that were predicted taken incorrectly
system.switch_cpus0.iew.wb_consumers        378118256                       # num instructions consuming a value
system.switch_cpus0.iew.wb_count            275325352                       # cumulative count of insts written-back
system.switch_cpus0.iew.wb_fanout            0.532085                       # average fanout of values written-back
system.switch_cpus0.iew.wb_producers        201190883                       # num instructions producing a value
system.switch_cpus0.iew.wb_rate              0.222947                       # insts written-back per cycle
system.switch_cpus0.iew.wb_sent             275326223                       # cumulative count of insts sent to commit
system.switch_cpus0.int_regfile_reads       418274073                       # number of integer regfile reads
system.switch_cpus0.int_regfile_writes       36248230                       # number of integer regfile writes
system.switch_cpus0.ipc                      0.202440                       # IPC: Instructions Per Cycle
system.switch_cpus0.ipc_total                0.202440                       # IPC: Total IPC of All Threads
system.switch_cpus0.iq.FU_type_0::No_OpClass            0      0.00%      0.00% # Type of FU issued
system.switch_cpus0.iq.FU_type_0::IntAlu     40340029     11.29%     11.29% # Type of FU issued
system.switch_cpus0.iq.FU_type_0::IntMult            0      0.00%     11.29% # Type of FU issued
system.switch_cpus0.iq.FU_type_0::IntDiv            0      0.00%     11.29% # Type of FU issued
system.switch_cpus0.iq.FU_type_0::FloatAdd            0      0.00%     11.29% # Type of FU issued
system.switch_cpus0.iq.FU_type_0::FloatCmp            0      0.00%     11.29% # Type of FU issued
system.switch_cpus0.iq.FU_type_0::FloatCvt            0      0.00%     11.29% # Type of FU issued
system.switch_cpus0.iq.FU_type_0::FloatMult            0      0.00%     11.29% # Type of FU issued
system.switch_cpus0.iq.FU_type_0::FloatMultAcc            0      0.00%     11.29% # Type of FU issued
system.switch_cpus0.iq.FU_type_0::FloatDiv            0      0.00%     11.29% # Type of FU issued
system.switch_cpus0.iq.FU_type_0::FloatMisc            0      0.00%     11.29% # Type of FU issued
system.switch_cpus0.iq.FU_type_0::FloatSqrt            0      0.00%     11.29% # Type of FU issued
system.switch_cpus0.iq.FU_type_0::SimdAdd            0      0.00%     11.29% # Type of FU issued
system.switch_cpus0.iq.FU_type_0::SimdAddAcc            0      0.00%     11.29% # Type of FU issued
system.switch_cpus0.iq.FU_type_0::SimdAlu        37221      0.01%     11.30% # Type of FU issued
system.switch_cpus0.iq.FU_type_0::SimdCmp            0      0.00%     11.30% # Type of FU issued
system.switch_cpus0.iq.FU_type_0::SimdCvt            0      0.00%     11.30% # Type of FU issued
system.switch_cpus0.iq.FU_type_0::SimdMisc            0      0.00%     11.30% # Type of FU issued
system.switch_cpus0.iq.FU_type_0::SimdMult            0      0.00%     11.30% # Type of FU issued
system.switch_cpus0.iq.FU_type_0::SimdMultAcc            0      0.00%     11.30% # Type of FU issued
system.switch_cpus0.iq.FU_type_0::SimdShift            0      0.00%     11.30% # Type of FU issued
system.switch_cpus0.iq.FU_type_0::SimdShiftAcc            0      0.00%     11.30% # Type of FU issued
system.switch_cpus0.iq.FU_type_0::SimdDiv            0      0.00%     11.30% # Type of FU issued
system.switch_cpus0.iq.FU_type_0::SimdSqrt            0      0.00%     11.30% # Type of FU issued
system.switch_cpus0.iq.FU_type_0::SimdFloatAdd     77280982     21.64%     32.94% # Type of FU issued
system.switch_cpus0.iq.FU_type_0::SimdFloatAlu            0      0.00%     32.94% # Type of FU issued
system.switch_cpus0.iq.FU_type_0::SimdFloatCmp            0      0.00%     32.94% # Type of FU issued
system.switch_cpus0.iq.FU_type_0::SimdFloatCvt            0      0.00%     32.94% # Type of FU issued
system.switch_cpus0.iq.FU_type_0::SimdFloatDiv      1488387      0.42%     33.36% # Type of FU issued
system.switch_cpus0.iq.FU_type_0::SimdFloatMisc            0      0.00%     33.36% # Type of FU issued
system.switch_cpus0.iq.FU_type_0::SimdFloatMult     46934286     13.14%     46.50% # Type of FU issued
system.switch_cpus0.iq.FU_type_0::SimdFloatMultAcc            0      0.00%     46.50% # Type of FU issued
system.switch_cpus0.iq.FU_type_0::SimdFloatSqrt            0      0.00%     46.50% # Type of FU issued
system.switch_cpus0.iq.FU_type_0::SimdReduceAdd            0      0.00%     46.50% # Type of FU issued
system.switch_cpus0.iq.FU_type_0::SimdReduceAlu            0      0.00%     46.50% # Type of FU issued
system.switch_cpus0.iq.FU_type_0::SimdReduceCmp            0      0.00%     46.50% # Type of FU issued
system.switch_cpus0.iq.FU_type_0::SimdFloatReduceAdd            0      0.00%     46.50% # Type of FU issued
system.switch_cpus0.iq.FU_type_0::SimdFloatReduceCmp            0      0.00%     46.50% # Type of FU issued
system.switch_cpus0.iq.FU_type_0::SimdAes            0      0.00%     46.50% # Type of FU issued
system.switch_cpus0.iq.FU_type_0::SimdAesMix            0      0.00%     46.50% # Type of FU issued
system.switch_cpus0.iq.FU_type_0::SimdSha1Hash            0      0.00%     46.50% # Type of FU issued
system.switch_cpus0.iq.FU_type_0::SimdSha1Hash2            0      0.00%     46.50% # Type of FU issued
system.switch_cpus0.iq.FU_type_0::SimdSha256Hash            0      0.00%     46.50% # Type of FU issued
system.switch_cpus0.iq.FU_type_0::SimdSha256Hash2            0      0.00%     46.50% # Type of FU issued
system.switch_cpus0.iq.FU_type_0::SimdShaSigma2            0      0.00%     46.50% # Type of FU issued
system.switch_cpus0.iq.FU_type_0::SimdShaSigma3            0      0.00%     46.50% # Type of FU issued
system.switch_cpus0.iq.FU_type_0::SimdPredAlu            0      0.00%     46.50% # Type of FU issued
system.switch_cpus0.iq.FU_type_0::MemRead     53318642     14.93%     61.42% # Type of FU issued
system.switch_cpus0.iq.FU_type_0::MemWrite       129175      0.04%     61.46% # Type of FU issued
system.switch_cpus0.iq.FU_type_0::FloatMemRead    106484652     29.81%     91.27% # Type of FU issued
system.switch_cpus0.iq.FU_type_0::FloatMemWrite     31181082      8.73%    100.00% # Type of FU issued
system.switch_cpus0.iq.FU_type_0::IprAccess            0      0.00%    100.00% # Type of FU issued
system.switch_cpus0.iq.FU_type_0::InstPrefetch            0      0.00%    100.00% # Type of FU issued
system.switch_cpus0.iq.FU_type_0::total     357194456                       # Type of FU issued
system.switch_cpus0.iq.fp_alu_accesses      320656071                       # Number of floating point alu accesses
system.switch_cpus0.iq.fp_inst_queue_reads    607421091                       # Number of floating instruction queue reads
system.switch_cpus0.iq.fp_inst_queue_wakeup_accesses    237286734                       # Number of floating instruction queue wakeup accesses
system.switch_cpus0.iq.fp_inst_queue_writes    237593110                       # Number of floating instruction queue writes
system.switch_cpus0.iq.fu_busy_cnt           44067664                       # FU busy when requested
system.switch_cpus0.iq.fu_busy_rate          0.123372                       # FU busy rate (busy events/executed inst)
system.switch_cpus0.iq.fu_full::No_OpClass            0      0.00%      0.00% # attempts to use FU when none available
system.switch_cpus0.iq.fu_full::IntAlu         490916      1.11%      1.11% # attempts to use FU when none available
system.switch_cpus0.iq.fu_full::IntMult             0      0.00%      1.11% # attempts to use FU when none available
system.switch_cpus0.iq.fu_full::IntDiv              0      0.00%      1.11% # attempts to use FU when none available
system.switch_cpus0.iq.fu_full::FloatAdd            0      0.00%      1.11% # attempts to use FU when none available
system.switch_cpus0.iq.fu_full::FloatCmp            0      0.00%      1.11% # attempts to use FU when none available
system.switch_cpus0.iq.fu_full::FloatCvt            0      0.00%      1.11% # attempts to use FU when none available
system.switch_cpus0.iq.fu_full::FloatMult            0      0.00%      1.11% # attempts to use FU when none available
system.switch_cpus0.iq.fu_full::FloatMultAcc            0      0.00%      1.11% # attempts to use FU when none available
system.switch_cpus0.iq.fu_full::FloatDiv            0      0.00%      1.11% # attempts to use FU when none available
system.switch_cpus0.iq.fu_full::FloatMisc            0      0.00%      1.11% # attempts to use FU when none available
system.switch_cpus0.iq.fu_full::FloatSqrt            0      0.00%      1.11% # attempts to use FU when none available
system.switch_cpus0.iq.fu_full::SimdAdd             0      0.00%      1.11% # attempts to use FU when none available
system.switch_cpus0.iq.fu_full::SimdAddAcc            0      0.00%      1.11% # attempts to use FU when none available
system.switch_cpus0.iq.fu_full::SimdAlu             0      0.00%      1.11% # attempts to use FU when none available
system.switch_cpus0.iq.fu_full::SimdCmp             0      0.00%      1.11% # attempts to use FU when none available
system.switch_cpus0.iq.fu_full::SimdCvt             0      0.00%      1.11% # attempts to use FU when none available
system.switch_cpus0.iq.fu_full::SimdMisc            0      0.00%      1.11% # attempts to use FU when none available
system.switch_cpus0.iq.fu_full::SimdMult            0      0.00%      1.11% # attempts to use FU when none available
system.switch_cpus0.iq.fu_full::SimdMultAcc            0      0.00%      1.11% # attempts to use FU when none available
system.switch_cpus0.iq.fu_full::SimdShift            0      0.00%      1.11% # attempts to use FU when none available
system.switch_cpus0.iq.fu_full::SimdShiftAcc            0      0.00%      1.11% # attempts to use FU when none available
system.switch_cpus0.iq.fu_full::SimdDiv             0      0.00%      1.11% # attempts to use FU when none available
system.switch_cpus0.iq.fu_full::SimdSqrt            0      0.00%      1.11% # attempts to use FU when none available
system.switch_cpus0.iq.fu_full::SimdFloatAdd      5084913     11.54%     12.65% # attempts to use FU when none available
system.switch_cpus0.iq.fu_full::SimdFloatAlu            0      0.00%     12.65% # attempts to use FU when none available
system.switch_cpus0.iq.fu_full::SimdFloatCmp            0      0.00%     12.65% # attempts to use FU when none available
system.switch_cpus0.iq.fu_full::SimdFloatCvt            0      0.00%     12.65% # attempts to use FU when none available
system.switch_cpus0.iq.fu_full::SimdFloatDiv            0      0.00%     12.65% # attempts to use FU when none available
system.switch_cpus0.iq.fu_full::SimdFloatMisc            0      0.00%     12.65% # attempts to use FU when none available
system.switch_cpus0.iq.fu_full::SimdFloatMult      5197332     11.79%     24.45% # attempts to use FU when none available
system.switch_cpus0.iq.fu_full::SimdFloatMultAcc            0      0.00%     24.45% # attempts to use FU when none available
system.switch_cpus0.iq.fu_full::SimdFloatSqrt            0      0.00%     24.45% # attempts to use FU when none available
system.switch_cpus0.iq.fu_full::SimdReduceAdd            0      0.00%     24.45% # attempts to use FU when none available
system.switch_cpus0.iq.fu_full::SimdReduceAlu            0      0.00%     24.45% # attempts to use FU when none available
system.switch_cpus0.iq.fu_full::SimdReduceCmp            0      0.00%     24.45% # attempts to use FU when none available
system.switch_cpus0.iq.fu_full::SimdFloatReduceAdd            0      0.00%     24.45% # attempts to use FU when none available
system.switch_cpus0.iq.fu_full::SimdFloatReduceCmp            0      0.00%     24.45% # attempts to use FU when none available
system.switch_cpus0.iq.fu_full::SimdAes             0      0.00%     24.45% # attempts to use FU when none available
system.switch_cpus0.iq.fu_full::SimdAesMix            0      0.00%     24.45% # attempts to use FU when none available
system.switch_cpus0.iq.fu_full::SimdSha1Hash            0      0.00%     24.45% # attempts to use FU when none available
system.switch_cpus0.iq.fu_full::SimdSha1Hash2            0      0.00%     24.45% # attempts to use FU when none available
system.switch_cpus0.iq.fu_full::SimdSha256Hash            0      0.00%     24.45% # attempts to use FU when none available
system.switch_cpus0.iq.fu_full::SimdSha256Hash2            0      0.00%     24.45% # attempts to use FU when none available
system.switch_cpus0.iq.fu_full::SimdShaSigma2            0      0.00%     24.45% # attempts to use FU when none available
system.switch_cpus0.iq.fu_full::SimdShaSigma3            0      0.00%     24.45% # attempts to use FU when none available
system.switch_cpus0.iq.fu_full::SimdPredAlu            0      0.00%     24.45% # attempts to use FU when none available
system.switch_cpus0.iq.fu_full::MemRead      10151789     23.04%     47.48% # attempts to use FU when none available
system.switch_cpus0.iq.fu_full::MemWrite        24625      0.06%     47.54% # attempts to use FU when none available
system.switch_cpus0.iq.fu_full::FloatMemRead     21421430     48.61%     96.15% # attempts to use FU when none available
system.switch_cpus0.iq.fu_full::FloatMemWrite      1696659      3.85%    100.00% # attempts to use FU when none available
system.switch_cpus0.iq.fu_full::IprAccess            0      0.00%    100.00% # attempts to use FU when none available
system.switch_cpus0.iq.fu_full::InstPrefetch            0      0.00%    100.00% # attempts to use FU when none available
system.switch_cpus0.iq.int_alu_accesses      80606049                       # Number of integer alu accesses
system.switch_cpus0.iq.int_inst_queue_reads   1385958173                       # Number of integer instruction queue reads
system.switch_cpus0.iq.int_inst_queue_wakeup_accesses     38038618                       # Number of integer instruction queue wakeup accesses
system.switch_cpus0.iq.int_inst_queue_writes     38164367                       # Number of integer instruction queue writes
system.switch_cpus0.iq.iqInstsAdded         275465448                       # Number of instructions added to the IQ (excludes non-spec)
system.switch_cpus0.iq.iqInstsIssued        357194456                       # Number of instructions issued
system.switch_cpus0.iq.iqSquashedInstsExamined       289862                       # Number of squashed instructions iterated over during squash; mainly for profiling
system.switch_cpus0.iq.iqSquashedInstsIssued          311                       # Number of squashed instructions issued
system.switch_cpus0.iq.iqSquashedOperandsExamined       469087                       # Number of squashed operands that are examined and possibly removed from graph
system.switch_cpus0.iq.issued_per_cycle::samples   1234922384                       # Number of insts issued each cycle
system.switch_cpus0.iq.issued_per_cycle::mean     0.289244                       # Number of insts issued each cycle
system.switch_cpus0.iq.issued_per_cycle::stdev     1.179035                       # Number of insts issued each cycle
system.switch_cpus0.iq.issued_per_cycle::underflows            0      0.00%      0.00% # Number of insts issued each cycle
system.switch_cpus0.iq.issued_per_cycle::0   1145056175     92.72%     92.72% # Number of insts issued each cycle
system.switch_cpus0.iq.issued_per_cycle::1     14733935      1.19%     93.92% # Number of insts issued each cycle
system.switch_cpus0.iq.issued_per_cycle::2     11677866      0.95%     94.86% # Number of insts issued each cycle
system.switch_cpus0.iq.issued_per_cycle::3      6889050      0.56%     95.42% # Number of insts issued each cycle
system.switch_cpus0.iq.issued_per_cycle::4     27101841      2.19%     97.61% # Number of insts issued each cycle
system.switch_cpus0.iq.issued_per_cycle::5      7907667      0.64%     98.25% # Number of insts issued each cycle
system.switch_cpus0.iq.issued_per_cycle::6      7495684      0.61%     98.86% # Number of insts issued each cycle
system.switch_cpus0.iq.issued_per_cycle::7      6963492      0.56%     99.43% # Number of insts issued each cycle
system.switch_cpus0.iq.issued_per_cycle::8      7096674      0.57%    100.00% # Number of insts issued each cycle
system.switch_cpus0.iq.issued_per_cycle::overflows            0      0.00%    100.00% # Number of insts issued each cycle
system.switch_cpus0.iq.issued_per_cycle::min_value            0                       # Number of insts issued each cycle
system.switch_cpus0.iq.issued_per_cycle::max_value            8                       # Number of insts issued each cycle
system.switch_cpus0.iq.issued_per_cycle::total   1234922384                       # Number of insts issued each cycle
system.switch_cpus0.iq.rate                  0.289242                       # Inst issue rate
system.switch_cpus0.iq.vec_alu_accesses             0                       # Number of vector alu accesses
system.switch_cpus0.iq.vec_inst_queue_reads            0                       # Number of vector instruction queue reads
system.switch_cpus0.iq.vec_inst_queue_wakeup_accesses            0                       # Number of vector instruction queue wakeup accesses
system.switch_cpus0.iq.vec_inst_queue_writes            0                       # Number of vector instruction queue writes
system.switch_cpus0.memDep0.conflictingLoads      2735437                       # Number of conflicting loads.
system.switch_cpus0.memDep0.conflictingStores       991808                       # Number of conflicting stores.
system.switch_cpus0.memDep0.insertedLoads     77994072                       # Number of loads inserted to the mem dependence unit.
system.switch_cpus0.memDep0.insertedStores     31367139                       # Number of stores inserted to the mem dependence unit.
system.switch_cpus0.misc_regfile_reads      199749602                       # number of misc regfile reads
system.switch_cpus0.misc_regfile_writes             1                       # number of misc regfile writes
system.switch_cpus0.numCycles              1234934347                       # number of cpu cycles simulated
system.switch_cpus0.numWorkItemsCompleted            0                       # number of work items this cpu completed
system.switch_cpus0.numWorkItemsStarted             0                       # number of work items this cpu started
system.switch_cpus0.timesIdled                     42                       # Number of times that the entire CPU went into an idle state and unscheduled itself
system.switch_cpus1.cc_regfile_reads          9300601                       # number of cc regfile reads
system.switch_cpus1.cc_regfile_writes         4425853                       # number of cc regfile writes
system.switch_cpus1.committedInsts          249998773                       # Number of Instructions Simulated
system.switch_cpus1.committedOps            275174148                       # Number of Ops (including micro ops) Simulated
system.switch_cpus1.cpi                      4.939762                       # CPI: Cycles Per Instruction
system.switch_cpus1.cpi_total                4.939762                       # CPI: Total CPI of All Threads
system.switch_cpus1.fp_regfile_reads        455080416                       # number of floating regfile reads
system.switch_cpus1.fp_regfile_writes       206105395                       # number of floating regfile writes
system.switch_cpus1.idleCycles                  11912                       # Total number of cycles that the CPU has spent unscheduled due to idling
system.switch_cpus1.iew.branchMispredicts         6485                       # Number of branch mispredicts detected at execute
system.switch_cpus1.iew.exec_branches         1661666                       # Number of branches executed
system.switch_cpus1.iew.exec_nop                    0                       # number of nop insts executed
system.switch_cpus1.iew.exec_rate            0.289345                       # Inst execution rate
system.switch_cpus1.iew.exec_refs           191242596                       # number of memory reference insts executed
system.switch_cpus1.iew.exec_stores          31309957                       # Number of stores executed
system.switch_cpus1.iew.exec_swp                    0                       # number of swp insts executed
system.switch_cpus1.iew.iewBlockCycles      215266544                       # Number of cycles IEW is blocking
system.switch_cpus1.iew.iewDispLoadInsts     77993482                       # Number of dispatched load instructions
system.switch_cpus1.iew.iewDispNonSpecInsts            0                       # Number of dispatched non-speculative instructions
system.switch_cpus1.iew.iewDispSquashedInsts          324                       # Number of squashed instructions skipped by dispatch
system.switch_cpus1.iew.iewDispStoreInsts     31366817                       # Number of dispatched store instructions
system.switch_cpus1.iew.iewDispatchedInsts    275463771                       # Number of instructions dispatched to IQ
system.switch_cpus1.iew.iewExecLoadInsts    159932639                       # Number of load instructions executed
system.switch_cpus1.iew.iewExecSquashedInsts         1425                       # Number of squashed instructions skipped in execute
system.switch_cpus1.iew.iewExecutedInsts    357322295                       # Number of executed instructions
system.switch_cpus1.iew.iewIQFullEvents       1852117                       # Number of times the IQ has become full, causing a stall
system.switch_cpus1.iew.iewIdleCycles               0                       # Number of cycles IEW is idle
system.switch_cpus1.iew.iewLSQFullEvents    367214518                       # Number of times the LSQ has become full, causing a stall
system.switch_cpus1.iew.iewSquashCycles          7512                       # Number of cycles IEW is squashing
system.switch_cpus1.iew.iewUnblockCycles    369567413                       # Number of cycles IEW is unblocking
system.switch_cpus1.iew.memOrderViolationEvents         2169                       # Number of memory order violations
system.switch_cpus1.iew.predictedNotTakenIncorrect         6091                       # Number of branches that were predicted not taken incorrectly
system.switch_cpus1.iew.predictedTakenIncorrect          394                       # Number of branches that were predicted taken incorrectly
system.switch_cpus1.iew.wb_consumers        378110458                       # num instructions consuming a value
system.switch_cpus1.iew.wb_count            275323644                       # cumulative count of insts written-back
system.switch_cpus1.iew.wb_fanout            0.532088                       # average fanout of values written-back
system.switch_cpus1.iew.wb_producers        201187871                       # num instructions producing a value
system.switch_cpus1.iew.wb_rate              0.222946                       # insts written-back per cycle
system.switch_cpus1.iew.wb_sent             275324630                       # cumulative count of insts sent to commit
system.switch_cpus1.int_regfile_reads       418533686                       # number of integer regfile reads
system.switch_cpus1.int_regfile_writes       36247705                       # number of integer regfile writes
system.switch_cpus1.ipc                      0.202439                       # IPC: Instructions Per Cycle
system.switch_cpus1.ipc_total                0.202439                       # IPC: Total IPC of All Threads
system.switch_cpus1.iq.FU_type_0::No_OpClass            0      0.00%      0.00% # Type of FU issued
system.switch_cpus1.iq.FU_type_0::IntAlu     40339772     11.29%     11.29% # Type of FU issued
system.switch_cpus1.iq.FU_type_0::IntMult            0      0.00%     11.29% # Type of FU issued
system.switch_cpus1.iq.FU_type_0::IntDiv            0      0.00%     11.29% # Type of FU issued
system.switch_cpus1.iq.FU_type_0::FloatAdd            0      0.00%     11.29% # Type of FU issued
system.switch_cpus1.iq.FU_type_0::FloatCmp            0      0.00%     11.29% # Type of FU issued
system.switch_cpus1.iq.FU_type_0::FloatCvt            0      0.00%     11.29% # Type of FU issued
system.switch_cpus1.iq.FU_type_0::FloatMult            0      0.00%     11.29% # Type of FU issued
system.switch_cpus1.iq.FU_type_0::FloatMultAcc            0      0.00%     11.29% # Type of FU issued
system.switch_cpus1.iq.FU_type_0::FloatDiv            0      0.00%     11.29% # Type of FU issued
system.switch_cpus1.iq.FU_type_0::FloatMisc            0      0.00%     11.29% # Type of FU issued
system.switch_cpus1.iq.FU_type_0::FloatSqrt            0      0.00%     11.29% # Type of FU issued
system.switch_cpus1.iq.FU_type_0::SimdAdd            0      0.00%     11.29% # Type of FU issued
system.switch_cpus1.iq.FU_type_0::SimdAddAcc            0      0.00%     11.29% # Type of FU issued
system.switch_cpus1.iq.FU_type_0::SimdAlu        37230      0.01%     11.30% # Type of FU issued
system.switch_cpus1.iq.FU_type_0::SimdCmp            0      0.00%     11.30% # Type of FU issued
system.switch_cpus1.iq.FU_type_0::SimdCvt            0      0.00%     11.30% # Type of FU issued
system.switch_cpus1.iq.FU_type_0::SimdMisc            0      0.00%     11.30% # Type of FU issued
system.switch_cpus1.iq.FU_type_0::SimdMult            0      0.00%     11.30% # Type of FU issued
system.switch_cpus1.iq.FU_type_0::SimdMultAcc            0      0.00%     11.30% # Type of FU issued
system.switch_cpus1.iq.FU_type_0::SimdShift            0      0.00%     11.30% # Type of FU issued
system.switch_cpus1.iq.FU_type_0::SimdShiftAcc            0      0.00%     11.30% # Type of FU issued
system.switch_cpus1.iq.FU_type_0::SimdDiv            0      0.00%     11.30% # Type of FU issued
system.switch_cpus1.iq.FU_type_0::SimdSqrt            0      0.00%     11.30% # Type of FU issued
system.switch_cpus1.iq.FU_type_0::SimdFloatAdd     77280614     21.63%     32.93% # Type of FU issued
system.switch_cpus1.iq.FU_type_0::SimdFloatAlu            0      0.00%     32.93% # Type of FU issued
system.switch_cpus1.iq.FU_type_0::SimdFloatCmp            0      0.00%     32.93% # Type of FU issued
system.switch_cpus1.iq.FU_type_0::SimdFloatCvt            0      0.00%     32.93% # Type of FU issued
system.switch_cpus1.iq.FU_type_0::SimdFloatDiv      1488378      0.42%     33.34% # Type of FU issued
system.switch_cpus1.iq.FU_type_0::SimdFloatMisc            0      0.00%     33.34% # Type of FU issued
system.switch_cpus1.iq.FU_type_0::SimdFloatMult     46934068     13.13%     46.48% # Type of FU issued
system.switch_cpus1.iq.FU_type_0::SimdFloatMultAcc            0      0.00%     46.48% # Type of FU issued
system.switch_cpus1.iq.FU_type_0::SimdFloatSqrt            0      0.00%     46.48% # Type of FU issued
system.switch_cpus1.iq.FU_type_0::SimdReduceAdd            0      0.00%     46.48% # Type of FU issued
system.switch_cpus1.iq.FU_type_0::SimdReduceAlu            0      0.00%     46.48% # Type of FU issued
system.switch_cpus1.iq.FU_type_0::SimdReduceCmp            0      0.00%     46.48% # Type of FU issued
system.switch_cpus1.iq.FU_type_0::SimdFloatReduceAdd            0      0.00%     46.48% # Type of FU issued
system.switch_cpus1.iq.FU_type_0::SimdFloatReduceCmp            0      0.00%     46.48% # Type of FU issued
system.switch_cpus1.iq.FU_type_0::SimdAes            0      0.00%     46.48% # Type of FU issued
system.switch_cpus1.iq.FU_type_0::SimdAesMix            0      0.00%     46.48% # Type of FU issued
system.switch_cpus1.iq.FU_type_0::SimdSha1Hash            0      0.00%     46.48% # Type of FU issued
system.switch_cpus1.iq.FU_type_0::SimdSha1Hash2            0      0.00%     46.48% # Type of FU issued
system.switch_cpus1.iq.FU_type_0::SimdSha256Hash            0      0.00%     46.48% # Type of FU issued
system.switch_cpus1.iq.FU_type_0::SimdSha256Hash2            0      0.00%     46.48% # Type of FU issued
system.switch_cpus1.iq.FU_type_0::SimdShaSigma2            0      0.00%     46.48% # Type of FU issued
system.switch_cpus1.iq.FU_type_0::SimdShaSigma3            0      0.00%     46.48% # Type of FU issued
system.switch_cpus1.iq.FU_type_0::SimdPredAlu            0      0.00%     46.48% # Type of FU issued
system.switch_cpus1.iq.FU_type_0::MemRead     53192386     14.89%     61.37% # Type of FU issued
system.switch_cpus1.iq.FU_type_0::MemWrite       129166      0.04%     61.40% # Type of FU issued
system.switch_cpus1.iq.FU_type_0::FloatMemRead    106741205     29.87%     91.27% # Type of FU issued
system.switch_cpus1.iq.FU_type_0::FloatMemWrite     31180901      8.73%    100.00% # Type of FU issued
system.switch_cpus1.iq.FU_type_0::IprAccess            0      0.00%    100.00% # Type of FU issued
system.switch_cpus1.iq.FU_type_0::InstPrefetch            0      0.00%    100.00% # Type of FU issued
system.switch_cpus1.iq.FU_type_0::total     357323720                       # Type of FU issued
[...]
system.switch_cpus3.commit.numCommittedDist::mean     0.222732                       # Number of insts commited each cycle
system.switch_cpus3.commit.numCommittedDist::stdev     1.185740                       # Number of insts commited each cycle
system.switch_cpus3.commit.numCommittedDist::underflows            0      0.00%      0.00% # Number of insts commited each cycle
system.switch_cpus3.commit.numCommittedDist::0   1172134389     94.92%     94.92% # Number of insts commited each cycle
system.switch_cpus3.commit.numCommittedDist::1     18711207      1.52%     96.43% # Number of insts commited each cycle
system.switch_cpus3.commit.numCommittedDist::2      7985688      0.65%     97.08% # Number of insts commited each cycle
system.switch_cpus3.commit.numCommittedDist::3      5596621      0.45%     97.53% # Number of insts commited each cycle
system.switch_cpus3.commit.numCommittedDist::4      2999305      0.24%     97.78% # Number of insts commited each cycle
system.switch_cpus3.commit.numCommittedDist::5      1644016      0.13%     97.91% # Number of insts commited each cycle
system.switch_cpus3.commit.numCommittedDist::6      1157403      0.09%     98.00% # Number of insts commited each cycle
system.switch_cpus3.commit.numCommittedDist::7       800476      0.06%     98.07% # Number of insts commited each cycle
system.switch_cpus3.commit.numCommittedDist::8     23851189      1.93%    100.00% # Number of insts commited each cycle
system.switch_cpus3.commit.numCommittedDist::overflows            0      0.00%    100.00% # Number of insts commited each cycle
system.switch_cpus3.commit.numCommittedDist::min_value            0                       # Number of insts commited each cycle
system.switch_cpus3.commit.numCommittedDist::max_value            8                       # Number of insts commited each cycle
system.switch_cpus3.commit.numCommittedDist::total   1234880294                       # Number of insts commited each cycle
system.switch_cpus3.commit.instsCommitted    249883110                       # Number of instructions committed
system.switch_cpus3.commit.opsCommitted     275047008                       # Number of ops (including micro ops) committed
system.switch_cpus3.commit.memRefs          109069129                       # Number of memory references committed
system.switch_cpus3.commit.loads             77781076                       # Number of loads committed
system.switch_cpus3.commit.amos                     0                       # Number of atomic instructions committed
system.switch_cpus3.commit.membars                  0                       # Number of memory barriers committed
system.switch_cpus3.commit.branches           1660680                       # Number of branches committed
system.switch_cpus3.commit.vector                   0                       # Number of committed Vector instructions.
system.switch_cpus3.commit.floating         237144695                       # Number of committed floating point instructions.
system.switch_cpus3.commit.integer          126028518                       # Number of committed integer instructions.
system.switch_cpus3.commit.functionCalls            2                       # Number of function calls committed.
system.switch_cpus3.commit.committedInstType_0::No_OpClass            0      0.00%      0.00% # Class of committed instruction
system.switch_cpus3.commit.committedInstType_0::IntAlu     40304772     14.65%     14.65% # Class of committed instruction
system.switch_cpus3.commit.committedInstType_0::IntMult            0      0.00%     14.65% # Class of committed instruction
system.switch_cpus3.commit.committedInstType_0::IntDiv            0      0.00%     14.65% # Class of committed instruction
system.switch_cpus3.commit.committedInstType_0::FloatAdd            0      0.00%     14.65% # Class of committed instruction
system.switch_cpus3.commit.committedInstType_0::FloatCmp            0      0.00%     14.65% # Class of committed instruction
system.switch_cpus3.commit.committedInstType_0::FloatCvt            0      0.00%     14.65% # Class of committed instruction
system.switch_cpus3.commit.committedInstType_0::FloatMult            0      0.00%     14.65% # Class of committed instruction
system.switch_cpus3.commit.committedInstType_0::FloatMultAcc            0      0.00%     14.65% # Class of committed instruction
system.switch_cpus3.commit.committedInstType_0::FloatDiv            0      0.00%     14.65% # Class of committed instruction
system.switch_cpus3.commit.committedInstType_0::FloatMisc            0      0.00%     14.65% # Class of committed instruction
system.switch_cpus3.commit.committedInstType_0::FloatSqrt            0      0.00%     14.65% # Class of committed instruction
system.switch_cpus3.commit.committedInstType_0::SimdAdd            0      0.00%     14.65% # Class of committed instruction
system.switch_cpus3.commit.committedInstType_0::SimdAddAcc            0      0.00%     14.65% # Class of committed instruction
system.switch_cpus3.commit.committedInstType_0::SimdAlu        36864      0.01%     14.67% # Class of committed instruction
system.switch_cpus3.commit.committedInstType_0::SimdCmp            0      0.00%     14.67% # Class of committed instruction
system.switch_cpus3.commit.committedInstType_0::SimdCvt            0      0.00%     14.67% # Class of committed instruction
system.switch_cpus3.commit.committedInstType_0::SimdMisc            0      0.00%     14.67% # Class of committed instruction
system.switch_cpus3.commit.committedInstType_0::SimdMult            0      0.00%     14.67% # Class of committed instruction
system.switch_cpus3.commit.committedInstType_0::SimdMultAcc            0      0.00%     14.67% # Class of committed instruction
system.switch_cpus3.commit.committedInstType_0::SimdShift            0      0.00%     14.67% # Class of committed instruction
system.switch_cpus3.commit.committedInstType_0::SimdShiftAcc            0      0.00%     14.67% # Class of committed instruction
system.switch_cpus3.commit.committedInstType_0::SimdDiv            0      0.00%     14.67% # Class of committed instruction
system.switch_cpus3.commit.committedInstType_0::SimdSqrt            0      0.00%     14.67% # Class of committed instruction
system.switch_cpus3.commit.committedInstType_0::SimdFloatAdd     77236627     28.08%     42.75% # Class of committed instruction
system.switch_cpus3.commit.committedInstType_0::SimdFloatAlu            0      0.00%     42.75% # Class of committed instruction
system.switch_cpus3.commit.committedInstType_0::SimdFloatCmp            0      0.00%     42.75% # Class of committed instruction
system.switch_cpus3.commit.committedInstType_0::SimdFloatCvt            0      0.00%     42.75% # Class of committed instruction
system.switch_cpus3.commit.committedInstType_0::SimdFloatDiv      1487664      0.54%     43.29% # Class of committed instruction
system.switch_cpus3.commit.committedInstType_0::SimdFloatMisc            0      0.00%     43.29% # Class of committed instruction
system.switch_cpus3.commit.committedInstType_0::SimdFloatMult     46911952     17.06%     60.35% # Class of committed instruction
system.switch_cpus3.commit.committedInstType_0::SimdFloatMultAcc            0      0.00%     60.35% # Class of committed instruction
system.switch_cpus3.commit.committedInstType_0::SimdFloatSqrt            0      0.00%     60.35% # Class of committed instruction
system.switch_cpus3.commit.committedInstType_0::SimdReduceAdd            0      0.00%     60.35% # Class of committed instruction
system.switch_cpus3.commit.committedInstType_0::SimdReduceAlu            0      0.00%     60.35% # Class of committed instruction
system.switch_cpus3.commit.committedInstType_0::SimdReduceCmp            0      0.00%     60.35% # Class of committed instruction
system.switch_cpus3.commit.committedInstType_0::SimdFloatReduceAdd            0      0.00%     60.35% # Class of committed instruction
system.switch_cpus3.commit.committedInstType_0::SimdFloatReduceCmp            0      0.00%     60.35% # Class of committed instruction
system.switch_cpus3.commit.committedInstType_0::SimdAes            0      0.00%     60.35% # Class of committed instruction
system.switch_cpus3.commit.committedInstType_0::SimdAesMix            0      0.00%     60.35% # Class of committed instruction
system.switch_cpus3.commit.committedInstType_0::SimdSha1Hash            0      0.00%     60.35% # Class of committed instruction
system.switch_cpus3.commit.committedInstType_0::SimdSha1Hash2            0      0.00%     60.35% # Class of committed instruction
system.switch_cpus3.commit.committedInstType_0::SimdSha256Hash            0      0.00%     60.35% # Class of committed instruction
system.switch_cpus3.commit.committedInstType_0::SimdSha256Hash2            0      0.00%     60.35% # Class of committed instruction
system.switch_cpus3.commit.committedInstType_0::SimdShaSigma2            0      0.00%     60.35% # Class of committed instruction
system.switch_cpus3.commit.committedInstType_0::SimdShaSigma3            0      0.00%     60.35% # Class of committed instruction
system.switch_cpus3.commit.committedInstType_0::SimdPredAlu            0      0.00%     60.35% # Class of committed instruction
system.switch_cpus3.commit.committedInstType_0::MemRead     20813896      7.57%     67.91% # Class of committed instruction
system.switch_cpus3.commit.committedInstType_0::MemWrite       129028      0.05%     67.96% # Class of committed instruction
system.switch_cpus3.commit.committedInstType_0::FloatMemRead     56967180     20.71%     88.67% # Class of committed instruction
system.switch_cpus3.commit.committedInstType_0::FloatMemWrite     31159025     11.33%    100.00% # Class of committed instruction
system.switch_cpus3.commit.committedInstType_0::IprAccess            0      0.00%    100.00% # Class of committed instruction
system.switch_cpus3.commit.committedInstType_0::InstPrefetch            0      0.00%    100.00% # Class of committed instruction
system.switch_cpus3.commit.committedInstType_0::total    275047008                       # Class of committed instruction
system.switch_cpus3.commit.commitEligibleSamples     23851189                       # number cycles where commit BW limit reached
system.switch_cpus3.decode.idleCycles         5102481                       # Number of cycles decode is idle
system.switch_cpus3.decode.blockedCycles   1195148707                       # Number of cycles decode is blocked
system.switch_cpus3.decode.runCycles         23041275                       # Number of cycles decode is running
system.switch_cpus3.decode.unblockCycles     11621818                       # Number of cycles decode is unblocking
system.switch_cpus3.decode.squashCycles          7499                       # Number of cycles decode is squashing
system.switch_cpus3.decode.branchResolved       608322                       # Number of times decode resolved a  branch
system.switch_cpus3.decode.branchMispred            5                       # Number of times decode detected a branch misprediction
system.switch_cpus3.decode.decodedInsts     275383807                       # Number of instructions handled by decode
system.switch_cpus3.decode.squashedInsts           28                       # Number of squashed instructions handled by decode
system.switch_cpus3.dtb.rdAccesses           77956254                       # TLB accesses on read requests
system.switch_cpus3.dtb.wrAccesses           31295806                       # TLB accesses on write requests
system.switch_cpus3.dtb.rdMisses                83118                       # TLB misses on read requests
system.switch_cpus3.dtb.wrMisses                 5063                       # TLB misses on write requests
system.switch_cpus3.dtb.walker.power_state.pwrStateResidencyTicks::UNDEFINED 14130285685551                       # Cumulative time (in ticks) in various power states
system.switch_cpus3.fetch.icacheStallCycles        14580                       # Number of cycles fetch is stalled on an Icache miss
system.switch_cpus3.fetch.insts             250501770                       # Number of instructions fetch has processed
system.switch_cpus3.fetch.branches            1667307                       # Number of branches that fetch encountered
system.switch_cpus3.fetch.predictedBranches       614505                       # Number of branches that fetch has predicted taken
system.switch_cpus3.fetch.cycles           1234899770                       # Number of cycles fetch has run and was not squashing or blocked
system.switch_cpus3.fetch.squashCycles          15008                       # Number of cycles fetch has spent squashing
system.switch_cpus3.fetch.cacheLines         21902721                       # Number of cache lines fetched
system.switch_cpus3.fetch.icacheSquashes           10                       # Number of outstanding Icache misses that were squashed
system.switch_cpus3.fetch.nisnDist::samples   1234921854                       # Number of instructions fetched each cycle (Total)
system.switch_cpus3.fetch.nisnDist::mean     0.223270                       # Number of instructions fetched each cycle (Total)
system.switch_cpus3.fetch.nisnDist::stdev     1.211966                       # Number of instructions fetched each cycle (Total)
system.switch_cpus3.fetch.nisnDist::underflows            0      0.00%      0.00% # Number of instructions fetched each cycle (Total)
system.switch_cpus3.fetch.nisnDist::0      1188362578     96.23%     96.23% # Number of instructions fetched each cycle (Total)
system.switch_cpus3.fetch.nisnDist::1         2885966      0.23%     96.46% # Number of instructions fetched each cycle (Total)
system.switch_cpus3.fetch.nisnDist::2         2007010      0.16%     96.63% # Number of instructions fetched each cycle (Total)
system.switch_cpus3.fetch.nisnDist::3         2929642      0.24%     96.86% # Number of instructions fetched each cycle (Total)
system.switch_cpus3.fetch.nisnDist::4         5328247      0.43%     97.29% # Number of instructions fetched each cycle (Total)
system.switch_cpus3.fetch.nisnDist::5         5931631      0.48%     97.78% # Number of instructions fetched each cycle (Total)
system.switch_cpus3.fetch.nisnDist::6         3722302      0.30%     98.08% # Number of instructions fetched each cycle (Total)
system.switch_cpus3.fetch.nisnDist::7         3308187      0.27%     98.34% # Number of instructions fetched each cycle (Total)
system.switch_cpus3.fetch.nisnDist::8        20446291      1.66%    100.00% # Number of instructions fetched each cycle (Total)
system.switch_cpus3.fetch.nisnDist::overflows            0      0.00%    100.00% # Number of instructions fetched each cycle (Total)
system.switch_cpus3.fetch.nisnDist::min_value            0                       # Number of instructions fetched each cycle (Total)
system.switch_cpus3.fetch.nisnDist::max_value            8                       # Number of instructions fetched each cycle (Total)
system.switch_cpus3.fetch.nisnDist::total   1234921854                       # Number of instructions fetched each cycle (Total)
system.switch_cpus3.fetch.branchRate         0.001350                       # Number of branch fetches per cycle
system.switch_cpus3.fetch.rate               0.202846                       # Number of inst fetches per cycle
system.switch_cpus3.itb.rdAccesses                  0                       # TLB accesses on read requests
system.switch_cpus3.itb.wrAccesses           21902721                       # TLB accesses on write requests
system.switch_cpus3.itb.rdMisses                    0                       # TLB misses on read requests
system.switch_cpus3.itb.wrMisses                    4                       # TLB misses on write requests
system.switch_cpus3.itb.walker.power_state.pwrStateResidencyTicks::UNDEFINED 14130285685551                       # Cumulative time (in ticks) in various power states
system.switch_cpus3.lsq0.forwLoads           12485991                       # Number of loads that had data forwarded from stores
system.switch_cpus3.lsq0.squashedLoads         176767                       # Number of loads squashed
system.switch_cpus3.lsq0.ignoredResponses           17                       # Number of memory responses ignored because the instruction is squashed
system.switch_cpus3.lsq0.memOrderViolation         2163                       # Number of memory ordering violations
system.switch_cpus3.lsq0.squashedStores         64768                       # Number of stores squashed
system.switch_cpus3.lsq0.rescheduledLoads            0                       # Number of loads that were rescheduled
system.switch_cpus3.lsq0.blockedByCache       5269671                       # Number of times an access to memory failed due to the cache being blocked
system.switch_cpus3.power_state.pwrStateResidencyTicks::OFF 411233147874                       # Cumulative time (in ticks) in various power states
system.switch_cpus3.rename.squashCycles          7499                       # Number of cycles rename is squashing
system.switch_cpus3.rename.idleCycles        10175233                       # Number of cycles rename is idle
system.switch_cpus3.rename.blockCycles      582210591                       # Number of cycles rename is blocking
system.switch_cpus3.rename.serializeStallCycles            0                       # count of cycles rename stalledfor serializing inst
system.switch_cpus3.rename.runCycles         29111159                       # Number of cycles rename is running
system.switch_cpus3.rename.unblockCycles    613417298                       # Number of cycles rename is unblocking
system.switch_cpus3.rename.renamedInsts     275346765                       # Number of instructions processed by rename
system.switch_cpus3.rename.IQFullEvents      31200648                       # Number of times rename has blocked due to IQ full
system.switch_cpus3.rename.LQFullEvents     425587543                       # Number of times rename has blocked due to LQ full
system.switch_cpus3.rename.SQFullEvents     177827113                       # Number of times rename has blocked due to SQ full
system.switch_cpus3.rename.renamedOperands    246756303                       # Number of destination operands rename has renamed
system.switch_cpus3.rename.lookups          836911150                       # Number of register rename lookups that rename has made
system.switch_cpus3.rename.intLookups       254663185                       # Number of integer rename lookups
system.switch_cpus3.rename.fpLookups        455002844                       # Number of floating rename lookups
system.switch_cpus3.rename.committedMaps    246510689                       # Number of HB maps that are committed
system.switch_cpus3.rename.undoneMaps          245548                       # Number of HB maps that are undone due to squashing
system.switch_cpus3.rename.serializing              0                       # count of serializing insts renamed
system.switch_cpus3.rename.tempSerializing            0                       # count of temporary serializing insts renamed
system.switch_cpus3.rename.skidInsts         66592043                       # count of insts added to the skid buffer
system.switch_cpus3.rob.reads              1486367780                       # The number of ROB reads
system.switch_cpus3.rob.writes              550718973                       # The number of ROB writes
system.switch_cpus3.thread0.numInsts        249883110                       # Number of Instructions committed
system.switch_cpus3.thread0.numOps          275047008                       # Number of Ops committed
system.switch_cpus3.thread0.numMemRefs              0                       # Number of Memory References
system.voltage_domain.voltage                       1                       # Voltage in Volts

---------- End Simulation Statistics   ----------
