Command line:
./runscript_pride.sh mix14 RFM2.BR1.4C 4 2017 --rh_defense --rh_mitigation=RFM --rh_rfm_per_trefi=2 --rh_rfm_blast_radius=1 --rh_rfm_maxacts_per_trefi=79
Global frequency set at 1000000000000 ticks per second
RFM details - rfm_act_threshold: 39, blast_radius: 1, delay_per_rfm: 175000 ps. sample_rate: 0.025000
RH Defense config: RFM, Bus Delay: 0, rfms_per_trefi: 2, rfm_act_threshold: 39, blast_radius: 1,rfm_delay_per_act: 45000 ps.
DRAM config: RowsPerBank: 65536, BanksPerRank: 32, RanksPerChannel: 1
warn: Sockets disabled, not accepting gdb connections
warn: CoherentXBar system.cpu0.mmucache.mmubus has no snooping ports attached!
warn: CoherentXBar system.cpu1.mmucache.mmubus has no snooping ports attached!
warn: CoherentXBar system.cpu2.mmucache.mmubus has no snooping ports attached!
warn: CoherentXBar system.cpu3.mmucache.mmubus has no snooping ports attached!
warn: Checkpoints for file descriptors currently do not work.
warn: Checkpoints for file descriptors currently do not work.
warn: Checkpoints for file descriptors currently do not work.
warn: Checkpoints for file descriptors currently do not work.
gem5 Simulator System.  http://gem5.org
gem5 is copyrighted software; use the --copyright option for details.

gem5 version 20.1.0.5
gem5 compiled Jul 12 2024 12:42:38
gem5 started Jul 31 2024 17:08:01
gem5 executing on a07dda8b130c, pid 241400
command line: /home/user/PrIDE/performance/gem5/build/X86/gem5.opt --outdir=/home/user/PrIDE/performance/gem5/stats/pride_multiprogram_16GBmem_250Mn.SPEC2017.C4/RFM2.BR1.4C/mix14 /home/user/PrIDE/performance/gem5/configs/example/se_rq_spec_config_multicore.py --redirects /lib64=/home/utils/gcc-6.2.0/lib64 --benchmark=mix14 --benchmark_stdout=/home/user/PrIDE/performance/gem5/stats/pride_multiprogram_16GBmem_250Mn.SPEC2017.C4/RFM2.BR1.4C/mix14/mix14.out --benchmark_stderr=/home/user/PrIDE/performance/gem5/stats/pride_multiprogram_16GBmem_250Mn.SPEC2017.C4/RFM2.BR1.4C/mix14/mix14.err --spec-version=2017 --rh_defense --rh_mitigation=RFM --rh_rfm_per_trefi=2 --rh_rfm_blast_radius=1 --rh_rfm_maxacts_per_trefi=79 --num-cpus=4 --mem-size=16GB --mem-type=DDR5_2400_32x4 --mem-ranks=1 --mem-channels=1 --checkpoint-dir=/home/user/PrIDE/performance/gem5/cpts-DDR5/multiprogram_16GBmem_25Bn.SPEC2017.C4/mix14-1-ref-x86 --checkpoint-restore=25000000000 --at-instruction --cpu-type DerivO3CPU --caches --l2cache --l1d_size=32kB --l1i_size=32kB --l2_size=256kB --l3_size=4MB --l1d_assoc=8 --l1i_assoc=8 --l2_assoc=16 --l3_assoc=16 --cpu-clock=3GHz --sys-clock=3GHz --maxinsts=250000000 --prog-interval=300Hz

info: Standard input is not a terminal, disabling listeners.
Benchmark- 0   gcc
Selected benchmark
--> gcc
CMD: ['/opt/spec2017/benchspec/CPU/502.gcc_r/run/run_base_refrate_gem5_se-m64.0000/cpugcc_r_base.gem5_se-m64', '/opt/spec2017/benchspec/CPU/502.gcc_r/run/run_base_refrate_gem5_se-m64.0000/gcc-pp.c', '-O3', '-finline-limit=0', '-fif-conversion', '-fif-conversion2', '-o', '/opt/spec2017/benchspec/CPU/502.gcc_r/run/run_base_refrate_gem5_se-m64.0000/gcc-pp.opts-O3_-finline-limit_0_-fif-conversion_-fif-conversion2.s']
CWD: /opt/spec2017/benchspec/CPU/502.gcc_r/run/run_base_refrate_gem5_se-m64.0000/
Process stdout file: /home/user/PrIDE/performance/gem5/stats/pride_multiprogram_16GBmem_250Mn.SPEC2017.C4/RFM2.BR1.4C/mix14/mix14.out_0
Process stderr file: /home/user/PrIDE/performance/gem5/stats/pride_multiprogram_16GBmem_250Mn.SPEC2017.C4/RFM2.BR1.4C/mix14/mix14.err_0
Benchmark- 1   imagick
Selected benchmark
--> imagick
CMD: ['/opt/spec2017/benchspec/CPU/538.imagick_r/run/run_base_refrate_gem5_se-m64.0000/imagick_r_base.gem5_se-m64', '-limit', 'disk', '0', '/opt/spec2017/benchspec/CPU/538.imagick_r/run/run_base_refrate_gem5_se-m64.0000/refrate_input.tga', '-edge', '41', '-resample', '181%', '-emboss', '31', '-colorspace', 'YUV', '-mean-shift', '19x19+15%', '-resize', '30%', '/opt/spec2017/benchspec/CPU/538.imagick_r/run/run_base_refrate_gem5_se-m64.0000/refrate_output.tga']
CWD: /opt/spec2017/benchspec/CPU/538.imagick_r/run/run_base_refrate_gem5_se-m64.0000/
Process stdout file: /home/user/PrIDE/performance/gem5/stats/pride_multiprogram_16GBmem_250Mn.SPEC2017.C4/RFM2.BR1.4C/mix14/mix14.out_1
Process stderr file: /home/user/PrIDE/performance/gem5/stats/pride_multiprogram_16GBmem_250Mn.SPEC2017.C4/RFM2.BR1.4C/mix14/mix14.err_1
Benchmark- 2   lbm
Selected benchmark
--> lbm
CMD: ['/opt/spec2017/benchspec/CPU/519.lbm_r/run/run_base_refrate_gem5_se-m64.0000/lbm_r_base.gem5_se-m64', '3000', 'reference.dat', '0', '0', '/opt/spec2017/benchspec/CPU/519.lbm_r/run/run_base_refrate_gem5_se-m64.0000/100_100_130_ldc.of']
CWD: /opt/spec2017/benchspec/CPU/519.lbm_r/run/run_base_refrate_gem5_se-m64.0000/
Process stdout file: /home/user/PrIDE/performance/gem5/stats/pride_multiprogram_16GBmem_250Mn.SPEC2017.C4/RFM2.BR1.4C/mix14/mix14.out_2
Process stderr file: /home/user/PrIDE/performance/gem5/stats/pride_multiprogram_16GBmem_250Mn.SPEC2017.C4/RFM2.BR1.4C/mix14/mix14.err_2
Benchmark- 3   wrf
Selected benchmark
--> wrf
CMD: ['/opt/spec2017/benchspec/CPU/521.wrf_r/run/run_base_refrate_gem5_se-m64.0000/wrf_r_base.gem5_se-m64']
CWD: /opt/spec2017/benchspec/CPU/521.wrf_r/run/run_base_refrate_gem5_se-m64.0000/
Process stdout file: /home/user/PrIDE/performance/gem5/stats/pride_multiprogram_16GBmem_250Mn.SPEC2017.C4/RFM2.BR1.4C/mix14/mix14.out_3
Process stderr file: /home/user/PrIDE/performance/gem5/stats/pride_multiprogram_16GBmem_250Mn.SPEC2017.C4/RFM2.BR1.4C/mix14/mix14.err_3
Workload-0: 
['/opt/spec2017/benchspec/CPU/502.gcc_r/run/run_base_refrate_gem5_se-m64.0000/cpugcc_r_base.gem5_se-m64', '/opt/spec2017/benchspec/CPU/502.gcc_r/run/run_base_refrate_gem5_se-m64.0000/gcc-pp.c', '-O3', '-finline-limit=0', '-fif-conversion', '-fif-conversion2', '-o', '/opt/spec2017/benchspec/CPU/502.gcc_r/run/run_base_refrate_gem5_se-m64.0000/gcc-pp.opts-O3_-finline-limit_0_-fif-conversion_-fif-conversion2.s']
Workload-1: 
['/opt/spec2017/benchspec/CPU/538.imagick_r/run/run_base_refrate_gem5_se-m64.0000/imagick_r_base.gem5_se-m64', '-limit', 'disk', '0', '/opt/spec2017/benchspec/CPU/538.imagick_r/run/run_base_refrate_gem5_se-m64.0000/refrate_input.tga', '-edge', '41', '-resample', '181%', '-emboss', '31', '-colorspace', 'YUV', '-mean-shift', '19x19+15%', '-resize', '30%', '/opt/spec2017/benchspec/CPU/538.imagick_r/run/run_base_refrate_gem5_se-m64.0000/refrate_output.tga']
Workload-2: 
['/opt/spec2017/benchspec/CPU/519.lbm_r/run/run_base_refrate_gem5_se-m64.0000/lbm_r_base.gem5_se-m64', '3000', 'reference.dat', '0', '0', '/opt/spec2017/benchspec/CPU/519.lbm_r/run/run_base_refrate_gem5_se-m64.0000/100_100_130_ldc.of']
Workload-3: 
['/opt/spec2017/benchspec/CPU/521.wrf_r/run/run_base_refrate_gem5_se-m64.0000/wrf_r_base.gem5_se-m64']
defense_enable:  True  detector:  MG  mitigation:  RFM  threshold:  800
mg_entries:  1700
rfm_maxacts_per_trefi:  79 rfm_per_trefi:  2 rfm_blast_radius:  1
Switch at curTick count:10000
warn: membus.master is deprecated. `master` is now called `mem_side_ports`
warn: No dot file generated. Please install pydot to generate the dot file and pdf.
info: Entering event queue @ 13719052595286.  Starting simulation...
info: Entering event queue @ 13719052605286.  Starting simulation...
warn: PowerState: Already in the requested power state, request ignored
Switched CPUS @ tick 13719052605286
switching cpus
**** REAL SIMULATION ****
info: Entering event queue @ 13719052605609.  Starting simulation...
warn: MOVNTDQ: Ignoring non-temporal hint, modeling as cacheable!
13722385928619: Event_285: system.switch_cpus3 progress event, total committed:6877421, progress insts committed: 6877421, IPC: 0.687054
13722385928619: Event_284: system.switch_cpus2 progress event, total committed:8024614, progress insts committed: 8024614, IPC: 0.801659
13722385928619: Event_283: system.switch_cpus1 progress event, total committed:49626225, progress insts committed: 49626225, IPC: 04.95766
13722385928619: Event_282: system.switch_cpus0 progress event, total committed:4070642, progress insts committed: 4070642, IPC: 0.406657
13725719261952: Event_282: system.switch_cpus0 progress event, total committed:10481355, progress insts committed: 6410713, IPC: 00.64043
13725719261952: Event_283: system.switch_cpus1 progress event, total committed:101718230, progress insts committed: 52092005, IPC: 05.20399
13725719261952: Event_284: system.switch_cpus2 progress event, total committed:15135872, progress insts committed: 7111258, IPC: 0.710415
13725719261952: Event_285: system.switch_cpus3 progress event, total committed:12480380, progress insts committed: 5602959, IPC: 0.559736
13729052595285: Event_285: system.switch_cpus3 progress event, total committed:17795303, progress insts committed: 5314923, IPC: 0.530961
13729052595285: Event_284: system.switch_cpus2 progress event, total committed:21842191, progress insts committed: 6706319, IPC: 0.669961
13729052595285: Event_283: system.switch_cpus1 progress event, total committed:153641436, progress insts committed: 51923206, IPC: 05.18713
13729052595285: Event_282: system.switch_cpus0 progress event, total committed:17410284, progress insts committed: 6928929, IPC: 000.6922
13732385928618: Event_282: system.switch_cpus0 progress event, total committed:22966371, progress insts committed: 5556087, IPC: 0.555053
13732385928618: Event_283: system.switch_cpus1 progress event, total committed:163138350, progress insts committed: 9496914, IPC: 0.948742
13732385928618: Event_284: system.switch_cpus2 progress event, total committed:28195153, progress insts committed: 6352962, IPC: 0.634661
13732385928618: Event_285: system.switch_cpus3 progress event, total committed:23445724, progress insts committed: 5650421, IPC: 0.564477
13735719261951: Event_285: system.switch_cpus3 progress event, total committed:28431189, progress insts committed: 4985465, IPC: 0.498048
13735719261951: Event_284: system.switch_cpus2 progress event, total committed:34642816, progress insts committed: 6447663, IPC: 0.644122
13735719261951: Event_283: system.switch_cpus1 progress event, total committed:174127504, progress insts committed: 10989154, IPC: 01.09782
13735719261951: Event_282: system.switch_cpus0 progress event, total committed:29815302, progress insts committed: 6848931, IPC: 0.684208
13739052595284: Event_282: system.switch_cpus0 progress event, total committed:33659860, progress insts committed: 3844558, IPC: 0.384071
13739052595284: Event_283: system.switch_cpus1 progress event, total committed:226295834, progress insts committed: 52168330, IPC: 05.21162
13739052595284: Event_284: system.switch_cpus2 progress event, total committed:41679124, progress insts committed: 7036308, IPC: 0.702927
13739052595284: Event_285: system.switch_cpus3 progress event, total committed:34124852, progress insts committed: 5693663, IPC: 0.568797
13742385928617: Event_285: system.switch_cpus3 progress event, total committed:40193316, progress insts committed: 6068464, IPC: 00.60624
13742385928617: Event_284: system.switch_cpus2 progress event, total committed:48104771, progress insts committed: 6425647, IPC: 0.641922
13742385928617: Event_283: system.switch_cpus1 progress event, total committed:278271939, progress insts committed: 51976105, IPC: 05.19241
13742385928617: Event_282: system.switch_cpus0 progress event, total committed:39685144, progress insts committed: 6025284, IPC: 0.601926
13745719261950: Event_282: system.switch_cpus0 progress event, total committed:47192497, progress insts committed: 7507353, IPC: 0.749985
13745719261950: Event_283: system.switch_cpus1 progress event, total committed:330276675, progress insts committed: 52004736, IPC: 05.19527
13745719261950: Event_284: system.switch_cpus2 progress event, total committed:54930446, progress insts committed: 6825675, IPC: 0.681885
13745719261950: Event_285: system.switch_cpus3 progress event, total committed:41825404, progress insts committed: 1632088, IPC: 0.163046
13749052595283: Event_285: system.switch_cpus3 progress event, total committed:45048062, progress insts committed: 3222658, IPC: 0.321944
13749052595283: Event_284: system.switch_cpus2 progress event, total committed:61705276, progress insts committed: 6774830, IPC: 0.676806
13749052595283: Event_283: system.switch_cpus1 progress event, total committed:382306657, progress insts committed: 52029982, IPC: 005.1978
13749052595283: Event_282: system.switch_cpus0 progress event, total committed:54942896, progress insts committed: 7750399, IPC: 0.774265
Exiting @ tick 13751662409163 because a thread reached the max instruction count
