
---------- Begin Simulation Statistics ----------
final_tick                               19790311453092                       # Number of ticks from beginning of simulation (restored from checkpoints and never reset)
host_inst_rate                                 138918                       # Simulator instruction rate (inst/s)
host_mem_usage                               17063516                       # Number of bytes of host memory used
host_op_rate                                   271889                       # Simulator op (including micro ops) rate (op/s)
host_seconds                                  7198.45                       # Real time elapsed on the host
host_tick_rate                                6593972                       # Simulator tick rate (ticks/s)
sim_freq                                 1000000000000                       # Frequency of simulated ticks
sim_insts                                   999996278                       # Number of instructions simulated
sim_ops                                    1957183995                       # Number of ops (including micro ops) simulated
sim_seconds                                  0.047466                       # Number of seconds simulated
sim_ticks                                 47466404415                       # Number of ticks simulated
system.cpu0.committedInsts                         14                       # Number of instructions committed
system.cpu0.committedOps                           24                       # Number of ops (including micro ops) committed
system.cpu0.idle_fraction                           0                       # Percentage of idle cycles
system.cpu0.l2bus.snoop_filter.hit_multi_requests            2                       # Number of requests hitting in the snoop filter with multiple (>1) holders of the requested data.
system.cpu0.l2bus.snoop_filter.hit_multi_snoops            0                       # Number of snoops hitting in the snoop filter with multiple (>1) holders of the requested data.
system.cpu0.l2bus.snoop_filter.hit_single_requests         6273                       # Number of requests hitting in the snoop filter with a single holder of the requested data.
system.cpu0.l2bus.snoop_filter.hit_single_snoops            0                       # Number of snoops hitting in the snoop filter with a single holder of the requested data.
system.cpu0.l2bus.snoop_filter.tot_requests        13357                       # Total number of requests made to the snoop filter.
system.cpu0.l2bus.snoop_filter.tot_snoops            0                       # Total number of snoops made to the snoop filter.
system.cpu0.mmucache.mmubus.snoop_filter.hit_multi_requests            0                       # Number of requests hitting in the snoop filter with multiple (>1) holders of the requested data.
system.cpu0.mmucache.mmubus.snoop_filter.hit_multi_snoops            0                       # Number of snoops hitting in the snoop filter with multiple (>1) holders of the requested data.
system.cpu0.mmucache.mmubus.snoop_filter.hit_single_requests            0                       # Number of requests hitting in the snoop filter with a single holder of the requested data.
system.cpu0.mmucache.mmubus.snoop_filter.hit_single_snoops            0                       # Number of snoops hitting in the snoop filter with a single holder of the requested data.
system.cpu0.mmucache.mmubus.snoop_filter.tot_requests            0                       # Total number of requests made to the snoop filter.
system.cpu0.mmucache.mmubus.snoop_filter.tot_snoops            0                       # Total number of snoops made to the snoop filter.
system.cpu0.not_idle_fraction                       1                       # Percentage of non-idle cycles
system.cpu0.numCycles                              32                       # number of cpu cycles simulated
system.cpu0.numWorkItemsCompleted                   0                       # number of work items this cpu completed
system.cpu0.numWorkItemsStarted                     0                       # number of work items this cpu started
system.cpu0.num_busy_cycles                        32                       # Number of busy cycles
system.cpu0.num_cc_register_writes                  3                       # number of times the CC registers were written
system.cpu0.num_conditional_control_insts            0                       # number of instructions that are conditional controls
system.cpu0.num_fp_alu_accesses                     0                       # Number of float alu accesses
system.cpu0.num_fp_insts                            0                       # number of float instructions
system.cpu0.num_fp_register_reads                   0                       # number of times the floating registers were read
system.cpu0.num_fp_register_writes                  0                       # number of times the floating registers were written
system.cpu0.num_func_calls                          0                       # number of times a function call or return occured
system.cpu0.num_idle_cycles                         0                       # Number of idle cycles
system.cpu0.num_int_alu_accesses                   24                       # Number of integer alu accesses
system.cpu0.num_int_insts                          24                       # number of integer instructions
system.cpu0.num_int_register_reads                 52                       # number of times the integer registers were read
system.cpu0.num_int_register_writes                25                       # number of times the integer registers were written
system.cpu0.num_load_insts                          2                       # Number of load instructions
system.cpu0.num_mem_refs                            4                       # number of memory refs
system.cpu0.num_store_insts                         2                       # Number of store instructions
system.cpu0.num_vec_alu_accesses                    0                       # Number of vector alu accesses
system.cpu0.num_vec_insts                           0                       # number of vector instructions
system.cpu0.num_vec_register_reads                  0                       # number of times the vector registers were read
system.cpu0.num_vec_register_writes                 0                       # number of times the vector registers were written
system.cpu0.op_class::No_OpClass                    0      0.00%      0.00% # Class of executed instruction
system.cpu0.op_class::IntAlu                       17     70.83%     70.83% # Class of executed instruction
system.cpu0.op_class::IntMult                       3     12.50%     83.33% # Class of executed instruction
system.cpu0.op_class::IntDiv                        0      0.00%     83.33% # Class of executed instruction
system.cpu0.op_class::FloatAdd                      0      0.00%     83.33% # Class of executed instruction
system.cpu0.op_class::FloatCmp                      0      0.00%     83.33% # Class of executed instruction
system.cpu0.op_class::FloatCvt                      0      0.00%     83.33% # Class of executed instruction
system.cpu0.op_class::FloatMult                     0      0.00%     83.33% # Class of executed instruction
system.cpu0.op_class::FloatMultAcc                  0      0.00%     83.33% # Class of executed instruction
system.cpu0.op_class::FloatDiv                      0      0.00%     83.33% # Class of executed instruction
system.cpu0.op_class::FloatMisc                     0      0.00%     83.33% # Class of executed instruction
system.cpu0.op_class::FloatSqrt                     0      0.00%     83.33% # Class of executed instruction
system.cpu0.op_class::SimdAdd                       0      0.00%     83.33% # Class of executed instruction
system.cpu0.op_class::SimdAddAcc                    0      0.00%     83.33% # Class of executed instruction
system.cpu0.op_class::SimdAlu                       0      0.00%     83.33% # Class of executed instruction
system.cpu0.op_class::SimdCmp                       0      0.00%     83.33% # Class of executed instruction
system.cpu0.op_class::SimdCvt                       0      0.00%     83.33% # Class of executed instruction
system.cpu0.op_class::SimdMisc                      0      0.00%     83.33% # Class of executed instruction
system.cpu0.op_class::SimdMult                      0      0.00%     83.33% # Class of executed instruction
system.cpu0.op_class::SimdMultAcc                   0      0.00%     83.33% # Class of executed instruction
system.cpu0.op_class::SimdShift                     0      0.00%     83.33% # Class of executed instruction
system.cpu0.op_class::SimdShiftAcc                  0      0.00%     83.33% # Class of executed instruction
system.cpu0.op_class::SimdDiv                       0      0.00%     83.33% # Class of executed instruction
system.cpu0.op_class::SimdSqrt                      0      0.00%     83.33% # Class of executed instruction
system.cpu0.op_class::SimdFloatAdd                  0      0.00%     83.33% # Class of executed instruction
system.cpu0.op_class::SimdFloatAlu                  0      0.00%     83.33% # Class of executed instruction
system.cpu0.op_class::SimdFloatCmp                  0      0.00%     83.33% # Class of executed instruction
system.cpu0.op_class::SimdFloatCvt                  0      0.00%     83.33% # Class of executed instruction
system.cpu0.op_class::SimdFloatDiv                  0      0.00%     83.33% # Class of executed instruction
system.cpu0.op_class::SimdFloatMisc                 0      0.00%     83.33% # Class of executed instruction
system.cpu0.op_class::SimdFloatMult                 0      0.00%     83.33% # Class of executed instruction
system.cpu0.op_class::SimdFloatMultAcc              0      0.00%     83.33% # Class of executed instruction
system.cpu0.op_class::SimdFloatSqrt                 0      0.00%     83.33% # Class of executed instruction
system.cpu0.op_class::SimdReduceAdd                 0      0.00%     83.33% # Class of executed instruction
system.cpu0.op_class::SimdReduceAlu                 0      0.00%     83.33% # Class of executed instruction
system.cpu0.op_class::SimdReduceCmp                 0      0.00%     83.33% # Class of executed instruction
system.cpu0.op_class::SimdFloatReduceAdd            0      0.00%     83.33% # Class of executed instruction
system.cpu0.op_class::SimdFloatReduceCmp            0      0.00%     83.33% # Class of executed instruction
system.cpu0.op_class::SimdAes                       0      0.00%     83.33% # Class of executed instruction
system.cpu0.op_class::SimdAesMix                    0      0.00%     83.33% # Class of executed instruction
system.cpu0.op_class::SimdSha1Hash                  0      0.00%     83.33% # Class of executed instruction
system.cpu0.op_class::SimdSha1Hash2                 0      0.00%     83.33% # Class of executed instruction
system.cpu0.op_class::SimdSha256Hash                0      0.00%     83.33% # Class of executed instruction
system.cpu0.op_class::SimdSha256Hash2               0      0.00%     83.33% # Class of executed instruction
system.cpu0.op_class::SimdShaSigma2                 0      0.00%     83.33% # Class of executed instruction
system.cpu0.op_class::SimdShaSigma3                 0      0.00%     83.33% # Class of executed instruction
system.cpu0.op_class::SimdPredAlu                   0      0.00%     83.33% # Class of executed instruction
system.cpu0.op_class::MemRead                       2      8.33%     91.67% # Class of executed instruction
system.cpu0.op_class::MemWrite                      2      8.33%    100.00% # Class of executed instruction
system.cpu0.op_class::FloatMemRead                  0      0.00%    100.00% # Class of executed instruction
system.cpu0.op_class::FloatMemWrite                 0      0.00%    100.00% # Class of executed instruction
system.cpu0.op_class::IprAccess                     0      0.00%    100.00% # Class of executed instruction
system.cpu0.op_class::InstPrefetch                  0      0.00%    100.00% # Class of executed instruction
system.cpu0.op_class::total                        24                       # Class of executed instruction
system.cpu0.workload.numSyscalls                    0                       # Number of system calls
system.cpu1.committedInsts                         14                       # Number of instructions committed
system.cpu1.committedOps                           24                       # Number of ops (including micro ops) committed
system.cpu1.idle_fraction                           0                       # Percentage of idle cycles
system.cpu1.l2bus.snoop_filter.hit_multi_requests            2                       # Number of requests hitting in the snoop filter with multiple (>1) holders of the requested data.
system.cpu1.l2bus.snoop_filter.hit_multi_snoops            0                       # Number of snoops hitting in the snoop filter with multiple (>1) holders of the requested data.
system.cpu1.l2bus.snoop_filter.hit_single_requests         6273                       # Number of requests hitting in the snoop filter with a single holder of the requested data.
system.cpu1.l2bus.snoop_filter.hit_single_snoops            0                       # Number of snoops hitting in the snoop filter with a single holder of the requested data.
system.cpu1.l2bus.snoop_filter.tot_requests        13357                       # Total number of requests made to the snoop filter.
system.cpu1.l2bus.snoop_filter.tot_snoops            0                       # Total number of snoops made to the snoop filter.
system.cpu1.mmucache.mmubus.snoop_filter.hit_multi_requests            0                       # Number of requests hitting in the snoop filter with multiple (>1) holders of the requested data.
system.cpu1.mmucache.mmubus.snoop_filter.hit_multi_snoops            0                       # Number of snoops hitting in the snoop filter with multiple (>1) holders of the requested data.
system.cpu1.mmucache.mmubus.snoop_filter.hit_single_requests            0                       # Number of requests hitting in the snoop filter with a single holder of the requested data.
system.cpu1.mmucache.mmubus.snoop_filter.hit_single_snoops            0                       # Number of snoops hitting in the snoop filter with a single holder of the requested data.
system.cpu1.mmucache.mmubus.snoop_filter.tot_requests            0                       # Total number of requests made to the snoop filter.
system.cpu1.mmucache.mmubus.snoop_filter.tot_snoops            0                       # Total number of snoops made to the snoop filter.
system.cpu1.not_idle_fraction                       1                       # Percentage of non-idle cycles
system.cpu1.numCycles                              32                       # number of cpu cycles simulated
system.cpu1.numWorkItemsCompleted                   0                       # number of work items this cpu completed
system.cpu1.numWorkItemsStarted                     0                       # number of work items this cpu started
system.cpu1.num_busy_cycles                        32                       # Number of busy cycles
system.cpu1.num_cc_register_writes                  3                       # number of times the CC registers were written
system.cpu1.num_conditional_control_insts            0                       # number of instructions that are conditional controls
system.cpu1.num_fp_alu_accesses                     0                       # Number of float alu accesses
system.cpu1.num_fp_insts                            0                       # number of float instructions
system.cpu1.num_fp_register_reads                   0                       # number of times the floating registers were read
system.cpu1.num_fp_register_writes                  0                       # number of times the floating registers were written
system.cpu1.num_func_calls                          0                       # number of times a function call or return occured
system.cpu1.num_idle_cycles                         0                       # Number of idle cycles
system.cpu1.num_int_alu_accesses                   24                       # Number of integer alu accesses
system.cpu1.num_int_insts                          24                       # number of integer instructions
system.cpu1.num_int_register_reads                 52                       # number of times the integer registers were read
system.cpu1.num_int_register_writes                25                       # number of times the integer registers were written
system.cpu1.num_load_insts                          2                       # Number of load instructions
system.cpu1.num_mem_refs                            4                       # number of memory refs
system.cpu1.num_store_insts                         2                       # Number of store instructions
system.cpu1.num_vec_alu_accesses                    0                       # Number of vector alu accesses
system.cpu1.num_vec_insts                           0                       # number of vector instructions
system.cpu1.num_vec_register_reads                  0                       # number of times the vector registers were read
system.cpu1.num_vec_register_writes                 0                       # number of times the vector registers were written
system.cpu1.op_class::No_OpClass                    0      0.00%      0.00% # Class of executed instruction
system.cpu1.op_class::IntAlu                       17     70.83%     70.83% # Class of executed instruction
system.cpu1.op_class::IntMult                       3     12.50%     83.33% # Class of executed instruction
system.cpu1.op_class::IntDiv                        0      0.00%     83.33% # Class of executed instruction
system.cpu1.op_class::FloatAdd                      0      0.00%     83.33% # Class of executed instruction
system.cpu1.op_class::FloatCmp                      0      0.00%     83.33% # Class of executed instruction
system.cpu1.op_class::FloatCvt                      0      0.00%     83.33% # Class of executed instruction
system.cpu1.op_class::FloatMult                     0      0.00%     83.33% # Class of executed instruction
system.cpu1.op_class::FloatMultAcc                  0      0.00%     83.33% # Class of executed instruction
system.cpu1.op_class::FloatDiv                      0      0.00%     83.33% # Class of executed instruction
system.cpu1.op_class::FloatMisc                     0      0.00%     83.33% # Class of executed instruction
system.cpu1.op_class::FloatSqrt                     0      0.00%     83.33% # Class of executed instruction
system.cpu1.op_class::SimdAdd                       0      0.00%     83.33% # Class of executed instruction
system.cpu1.op_class::SimdAddAcc                    0      0.00%     83.33% # Class of executed instruction
system.cpu1.op_class::SimdAlu                       0      0.00%     83.33% # Class of executed instruction
system.cpu1.op_class::SimdCmp                       0      0.00%     83.33% # Class of executed instruction
system.cpu1.op_class::SimdCvt                       0      0.00%     83.33% # Class of executed instruction
system.cpu1.op_class::SimdMisc                      0      0.00%     83.33% # Class of executed instruction
system.cpu1.op_class::SimdMult                      0      0.00%     83.33% # Class of executed instruction
system.cpu1.op_class::SimdMultAcc                   0      0.00%     83.33% # Class of executed instruction
system.cpu1.op_class::SimdShift                     0      0.00%     83.33% # Class of executed instruction
system.cpu1.op_class::SimdShiftAcc                  0      0.00%     83.33% # Class of executed instruction
system.cpu1.op_class::SimdDiv                       0      0.00%     83.33% # Class of executed instruction
system.cpu1.op_class::SimdSqrt                      0      0.00%     83.33% # Class of executed instruction
system.cpu1.op_class::SimdFloatAdd                  0      0.00%     83.33% # Class of executed instruction
system.cpu1.op_class::SimdFloatAlu                  0      0.00%     83.33% # Class of executed instruction
system.cpu1.op_class::SimdFloatCmp                  0      0.00%     83.33% # Class of executed instruction
system.cpu1.op_class::SimdFloatCvt                  0      0.00%     83.33% # Class of executed instruction
system.cpu1.op_class::SimdFloatDiv                  0      0.00%     83.33% # Class of executed instruction
system.cpu1.op_class::SimdFloatMisc                 0      0.00%     83.33% # Class of executed instruction
system.cpu1.op_class::SimdFloatMult                 0      0.00%     83.33% # Class of executed instruction
system.cpu1.op_class::SimdFloatMultAcc              0      0.00%     83.33% # Class of executed instruction
system.cpu1.op_class::SimdFloatSqrt                 0      0.00%     83.33% # Class of executed instruction
system.cpu1.op_class::SimdReduceAdd                 0      0.00%     83.33% # Class of executed instruction
system.cpu1.op_class::SimdReduceAlu                 0      0.00%     83.33% # Class of executed instruction
system.cpu1.op_class::SimdReduceCmp                 0      0.00%     83.33% # Class of executed instruction
system.cpu1.op_class::SimdFloatReduceAdd            0      0.00%     83.33% # Class of executed instruction
system.cpu1.op_class::SimdFloatReduceCmp            0      0.00%     83.33% # Class of executed instruction
system.cpu1.op_class::SimdAes                       0      0.00%     83.33% # Class of executed instruction
system.cpu1.op_class::SimdAesMix                    0      0.00%     83.33% # Class of executed instruction
system.cpu1.op_class::SimdSha1Hash                  0      0.00%     83.33% # Class of executed instruction
system.cpu1.op_class::SimdSha1Hash2                 0      0.00%     83.33% # Class of executed instruction
system.cpu1.op_class::SimdSha256Hash                0      0.00%     83.33% # Class of executed instruction
system.cpu1.op_class::SimdSha256Hash2               0      0.00%     83.33% # Class of executed instruction
system.cpu1.op_class::SimdShaSigma2                 0      0.00%     83.33% # Class of executed instruction
system.cpu1.op_class::SimdShaSigma3                 0      0.00%     83.33% # Class of executed instruction
system.cpu1.op_class::SimdPredAlu                   0      0.00%     83.33% # Class of executed instruction
system.cpu1.op_class::MemRead                       2      8.33%     91.67% # Class of executed instruction
system.cpu1.op_class::MemWrite                      2      8.33%    100.00% # Class of executed instruction
system.cpu1.op_class::FloatMemRead                  0      0.00%    100.00% # Class of executed instruction
system.cpu1.op_class::FloatMemWrite                 0      0.00%    100.00% # Class of executed instruction
system.cpu1.op_class::IprAccess                     0      0.00%    100.00% # Class of executed instruction
system.cpu1.op_class::InstPrefetch                  0      0.00%    100.00% # Class of executed instruction
system.cpu1.op_class::total                        24                       # Class of executed instruction
system.cpu1.workload.numSyscalls                    0                       # Number of system calls
system.cpu2.committedInsts                         14                       # Number of instructions committed
system.cpu2.committedOps                           24                       # Number of ops (including micro ops) committed
system.cpu2.idle_fraction                           0                       # Percentage of idle cycles
system.cpu2.l2bus.snoop_filter.hit_multi_requests            2                       # Number of requests hitting in the snoop filter with multiple (>1) holders of the requested data.
system.cpu2.l2bus.snoop_filter.hit_multi_snoops            0                       # Number of snoops hitting in the snoop filter with multiple (>1) holders of the requested data.
system.cpu2.l2bus.snoop_filter.hit_single_requests         6272                       # Number of requests hitting in the snoop filter with a single holder of the requested data.
system.cpu2.l2bus.snoop_filter.hit_single_snoops            0                       # Number of snoops hitting in the snoop filter with a single holder of the requested data.
system.cpu2.l2bus.snoop_filter.tot_requests        13355                       # Total number of requests made to the snoop filter.
system.cpu2.l2bus.snoop_filter.tot_snoops            0                       # Total number of snoops made to the snoop filter.
system.cpu2.mmucache.mmubus.snoop_filter.hit_multi_requests            0                       # Number of requests hitting in the snoop filter with multiple (>1) holders of the requested data.
system.cpu2.mmucache.mmubus.snoop_filter.hit_multi_snoops            0                       # Number of snoops hitting in the snoop filter with multiple (>1) holders of the requested data.
system.cpu2.mmucache.mmubus.snoop_filter.hit_single_requests            0                       # Number of requests hitting in the snoop filter with a single holder of the requested data.
system.cpu2.mmucache.mmubus.snoop_filter.hit_single_snoops            0                       # Number of snoops hitting in the snoop filter with a single holder of the requested data.
system.cpu2.mmucache.mmubus.snoop_filter.tot_requests            0                       # Total number of requests made to the snoop filter.
system.cpu2.mmucache.mmubus.snoop_filter.tot_snoops            0                       # Total number of snoops made to the snoop filter.
system.cpu2.not_idle_fraction                       1                       # Percentage of non-idle cycles
system.cpu2.numCycles                              32                       # number of cpu cycles simulated
system.cpu2.numWorkItemsCompleted                   0                       # number of work items this cpu completed
system.cpu2.numWorkItemsStarted                     0                       # number of work items this cpu started
system.cpu2.num_busy_cycles                        32                       # Number of busy cycles
system.cpu2.num_cc_register_writes                  3                       # number of times the CC registers were written
system.cpu2.num_conditional_control_insts            0                       # number of instructions that are conditional controls
system.cpu2.num_fp_alu_accesses                     0                       # Number of float alu accesses
system.cpu2.num_fp_insts                            0                       # number of float instructions
system.cpu2.num_fp_register_reads                   0                       # number of times the floating registers were read
system.cpu2.num_fp_register_writes                  0                       # number of times the floating registers were written
system.cpu2.num_func_calls                          0                       # number of times a function call or return occured
system.cpu2.num_idle_cycles                         0                       # Number of idle cycles
system.cpu2.num_int_alu_accesses                   24                       # Number of integer alu accesses
system.cpu2.num_int_insts                          24                       # number of integer instructions
system.cpu2.num_int_register_reads                 52                       # number of times the integer registers were read
system.cpu2.num_int_register_writes                25                       # number of times the integer registers were written
system.cpu2.num_load_insts                          2                       # Number of load instructions
system.cpu2.num_mem_refs                            4                       # number of memory refs
system.cpu2.num_store_insts                         2                       # Number of store instructions
system.cpu2.num_vec_alu_accesses                    0                       # Number of vector alu accesses
system.cpu2.num_vec_insts                           0                       # number of vector instructions
system.cpu2.num_vec_register_reads                  0                       # number of times the vector registers were read
system.cpu2.num_vec_register_writes                 0                       # number of times the vector registers were written
system.cpu2.op_class::No_OpClass                    0      0.00%      0.00% # Class of executed instruction
system.cpu2.op_class::IntAlu                       17     70.83%     70.83% # Class of executed instruction
system.cpu2.op_class::IntMult                       3     12.50%     83.33% # Class of executed instruction
system.cpu2.op_class::IntDiv                        0      0.00%     83.33% # Class of executed instruction
system.cpu2.op_class::FloatAdd                      0      0.00%     83.33% # Class of executed instruction
system.cpu2.op_class::FloatCmp                      0      0.00%     83.33% # Class of executed instruction
system.cpu2.op_class::FloatCvt                      0      0.00%     83.33% # Class of executed instruction
system.cpu2.op_class::FloatMult                     0      0.00%     83.33% # Class of executed instruction
system.cpu2.op_class::FloatMultAcc                  0      0.00%     83.33% # Class of executed instruction
system.cpu2.op_class::FloatDiv                      0      0.00%     83.33% # Class of executed instruction
system.cpu2.op_class::FloatMisc                     0      0.00%     83.33% # Class of executed instruction
system.cpu2.op_class::FloatSqrt                     0      0.00%     83.33% # Class of executed instruction
system.cpu2.op_class::SimdAdd                       0      0.00%     83.33% # Class of executed instruction
system.cpu2.op_class::SimdAddAcc                    0      0.00%     83.33% # Class of executed instruction
system.cpu2.op_class::SimdAlu                       0      0.00%     83.33% # Class of executed instruction
system.cpu2.op_class::SimdCmp                       0      0.00%     83.33% # Class of executed instruction
system.cpu2.op_class::SimdCvt                       0      0.00%     83.33% # Class of executed instruction
system.cpu2.op_class::SimdMisc                      0      0.00%     83.33% # Class of executed instruction
system.cpu2.op_class::SimdMult                      0      0.00%     83.33% # Class of executed instruction
system.cpu2.op_class::SimdMultAcc                   0      0.00%     83.33% # Class of executed instruction
system.cpu2.op_class::SimdShift                     0      0.00%     83.33% # Class of executed instruction
system.cpu2.op_class::SimdShiftAcc                  0      0.00%     83.33% # Class of executed instruction
system.cpu2.op_class::SimdDiv                       0      0.00%     83.33% # Class of executed instruction
system.cpu2.op_class::SimdSqrt                      0      0.00%     83.33% # Class of executed instruction
system.cpu2.op_class::SimdFloatAdd                  0      0.00%     83.33% # Class of executed instruction
system.cpu2.op_class::SimdFloatAlu                  0      0.00%     83.33% # Class of executed instruction
system.cpu2.op_class::SimdFloatCmp                  0      0.00%     83.33% # Class of executed instruction
system.cpu2.op_class::SimdFloatCvt                  0      0.00%     83.33% # Class of executed instruction
system.cpu2.op_class::SimdFloatDiv                  0      0.00%     83.33% # Class of executed instruction
system.cpu2.op_class::SimdFloatMisc                 0      0.00%     83.33% # Class of executed instruction
system.cpu2.op_class::SimdFloatMult                 0      0.00%     83.33% # Class of executed instruction
system.cpu2.op_class::SimdFloatMultAcc              0      0.00%     83.33% # Class of executed instruction
system.cpu2.op_class::SimdFloatSqrt                 0      0.00%     83.33% # Class of executed instruction
system.cpu2.op_class::SimdReduceAdd                 0      0.00%     83.33% # Class of executed instruction
system.cpu2.op_class::SimdReduceAlu                 0      0.00%     83.33% # Class of executed instruction
system.cpu2.op_class::SimdReduceCmp                 0      0.00%     83.33% # Class of executed instruction
system.cpu2.op_class::SimdFloatReduceAdd            0      0.00%     83.33% # Class of executed instruction
system.cpu2.op_class::SimdFloatReduceCmp            0      0.00%     83.33% # Class of executed instruction
system.cpu2.op_class::SimdAes                       0      0.00%     83.33% # Class of executed instruction
system.cpu2.op_class::SimdAesMix                    0      0.00%     83.33% # Class of executed instruction
system.cpu2.op_class::SimdSha1Hash                  0      0.00%     83.33% # Class of executed instruction
system.cpu2.op_class::SimdSha1Hash2                 0      0.00%     83.33% # Class of executed instruction
system.cpu2.op_class::SimdSha256Hash                0      0.00%     83.33% # Class of executed instruction
system.cpu2.op_class::SimdSha256Hash2               0      0.00%     83.33% # Class of executed instruction
system.cpu2.op_class::SimdShaSigma2                 0      0.00%     83.33% # Class of executed instruction
system.cpu2.op_class::SimdShaSigma3                 0      0.00%     83.33% # Class of executed instruction
system.cpu2.op_class::SimdPredAlu                   0      0.00%     83.33% # Class of executed instruction
system.cpu2.op_class::MemRead                       2      8.33%     91.67% # Class of executed instruction
system.cpu2.op_class::MemWrite                      2      8.33%    100.00% # Class of executed instruction
system.cpu2.op_class::FloatMemRead                  0      0.00%    100.00% # Class of executed instruction
system.cpu2.op_class::FloatMemWrite                 0      0.00%    100.00% # Class of executed instruction
system.cpu2.op_class::IprAccess                     0      0.00%    100.00% # Class of executed instruction
system.cpu2.op_class::InstPrefetch                  0      0.00%    100.00% # Class of executed instruction
system.cpu2.op_class::total                        24                       # Class of executed instruction
system.cpu2.workload.numSyscalls                    0                       # Number of system calls
system.cpu3.committedInsts                         14                       # Number of instructions committed
system.cpu3.committedOps                           24                       # Number of ops (including micro ops) committed
system.cpu3.idle_fraction                           0                       # Percentage of idle cycles
system.cpu3.l2bus.snoop_filter.hit_multi_requests            2                       # Number of requests hitting in the snoop filter with multiple (>1) holders of the requested data.
system.cpu3.l2bus.snoop_filter.hit_multi_snoops            0                       # Number of snoops hitting in the snoop filter with multiple (>1) holders of the requested data.
system.cpu3.l2bus.snoop_filter.hit_single_requests         6273                       # Number of requests hitting in the snoop filter with a single holder of the requested data.
system.cpu3.l2bus.snoop_filter.hit_single_snoops            0                       # Number of snoops hitting in the snoop filter with a single holder of the requested data.
system.cpu3.l2bus.snoop_filter.tot_requests        13357                       # Total number of requests made to the snoop filter.
system.cpu3.l2bus.snoop_filter.tot_snoops            0                       # Total number of snoops made to the snoop filter.
system.cpu3.mmucache.mmubus.snoop_filter.hit_multi_requests            0                       # Number of requests hitting in the snoop filter with multiple (>1) holders of the requested data.
system.cpu3.mmucache.mmubus.snoop_filter.hit_multi_snoops            0                       # Number of snoops hitting in the snoop filter with multiple (>1) holders of the requested data.
system.cpu3.mmucache.mmubus.snoop_filter.hit_single_requests            0                       # Number of requests hitting in the snoop filter with a single holder of the requested data.
system.cpu3.mmucache.mmubus.snoop_filter.hit_single_snoops            0                       # Number of snoops hitting in the snoop filter with a single holder of the requested data.
system.cpu3.mmucache.mmubus.snoop_filter.tot_requests            0                       # Total number of requests made to the snoop filter.
system.cpu3.mmucache.mmubus.snoop_filter.tot_snoops            0                       # Total number of snoops made to the snoop filter.
system.cpu3.not_idle_fraction                       1                       # Percentage of non-idle cycles
system.cpu3.numCycles                              32                       # number of cpu cycles simulated
system.cpu3.numWorkItemsCompleted                   0                       # number of work items this cpu completed
system.cpu3.numWorkItemsStarted                     0                       # number of work items this cpu started
system.cpu3.num_busy_cycles                        32                       # Number of busy cycles
system.cpu3.num_cc_register_writes                  3                       # number of times the CC registers were written
system.cpu3.num_conditional_control_insts            0                       # number of instructions that are conditional controls
system.cpu3.num_fp_alu_accesses                     0                       # Number of float alu accesses
system.cpu3.num_fp_insts                            0                       # number of float instructions
system.cpu3.num_fp_register_reads                   0                       # number of times the floating registers were read
system.cpu3.num_fp_register_writes                  0                       # number of times the floating registers were written
system.cpu3.num_func_calls                          0                       # number of times a function call or return occured
system.cpu3.num_idle_cycles                         0                       # Number of idle cycles
system.cpu3.num_int_alu_accesses                   24                       # Number of integer alu accesses
system.cpu3.num_int_insts                          24                       # number of integer instructions
system.cpu3.num_int_register_reads                 52                       # number of times the integer registers were read
system.cpu3.num_int_register_writes                25                       # number of times the integer registers were written
system.cpu3.num_load_insts                          2                       # Number of load instructions
system.cpu3.num_mem_refs                            4                       # number of memory refs
system.cpu3.num_store_insts                         2                       # Number of store instructions
system.cpu3.num_vec_alu_accesses                    0                       # Number of vector alu accesses
system.cpu3.num_vec_insts                           0                       # number of vector instructions
system.cpu3.num_vec_register_reads                  0                       # number of times the vector registers were read
system.cpu3.num_vec_register_writes                 0                       # number of times the vector registers were written
system.cpu3.op_class::No_OpClass                    0      0.00%      0.00% # Class of executed instruction
system.cpu3.op_class::IntAlu                       17     70.83%     70.83% # Class of executed instruction
system.cpu3.op_class::IntMult                       3     12.50%     83.33% # Class of executed instruction
system.cpu3.op_class::IntDiv                        0      0.00%     83.33% # Class of executed instruction
system.cpu3.op_class::FloatAdd                      0      0.00%     83.33% # Class of executed instruction
system.cpu3.op_class::FloatCmp                      0      0.00%     83.33% # Class of executed instruction
system.cpu3.op_class::FloatCvt                      0      0.00%     83.33% # Class of executed instruction
system.cpu3.op_class::FloatMult                     0      0.00%     83.33% # Class of executed instruction
system.cpu3.op_class::FloatMultAcc                  0      0.00%     83.33% # Class of executed instruction
system.cpu3.op_class::FloatDiv                      0      0.00%     83.33% # Class of executed instruction
system.cpu3.op_class::FloatMisc                     0      0.00%     83.33% # Class of executed instruction
system.cpu3.op_class::FloatSqrt                     0      0.00%     83.33% # Class of executed instruction
system.cpu3.op_class::SimdAdd                       0      0.00%     83.33% # Class of executed instruction
system.cpu3.op_class::SimdAddAcc                    0      0.00%     83.33% # Class of executed instruction
system.cpu3.op_class::SimdAlu                       0      0.00%     83.33% # Class of executed instruction
system.cpu3.op_class::SimdCmp                       0      0.00%     83.33% # Class of executed instruction
system.cpu3.op_class::SimdCvt                       0      0.00%     83.33% # Class of executed instruction
system.cpu3.op_class::SimdMisc                      0      0.00%     83.33% # Class of executed instruction
system.cpu3.op_class::SimdMult                      0      0.00%     83.33% # Class of executed instruction
system.cpu3.op_class::SimdMultAcc                   0      0.00%     83.33% # Class of executed instruction
system.cpu3.op_class::SimdShift                     0      0.00%     83.33% # Class of executed instruction
system.cpu3.op_class::SimdShiftAcc                  0      0.00%     83.33% # Class of executed instruction
system.cpu3.op_class::SimdDiv                       0      0.00%     83.33% # Class of executed instruction
system.cpu3.op_class::SimdSqrt                      0      0.00%     83.33% # Class of executed instruction
system.cpu3.op_class::SimdFloatAdd                  0      0.00%     83.33% # Class of executed instruction
system.cpu3.op_class::SimdFloatAlu                  0      0.00%     83.33% # Class of executed instruction
system.cpu3.op_class::SimdFloatCmp                  0      0.00%     83.33% # Class of executed instruction
system.cpu3.op_class::SimdFloatCvt                  0      0.00%     83.33% # Class of executed instruction
system.cpu3.op_class::SimdFloatDiv                  0      0.00%     83.33% # Class of executed instruction
system.cpu3.op_class::SimdFloatMisc                 0      0.00%     83.33% # Class of executed instruction
system.cpu3.op_class::SimdFloatMult                 0      0.00%     83.33% # Class of executed instruction
system.cpu3.op_class::SimdFloatMultAcc              0      0.00%     83.33% # Class of executed instruction
system.cpu3.op_class::SimdFloatSqrt                 0      0.00%     83.33% # Class of executed instruction
system.cpu3.op_class::SimdReduceAdd                 0      0.00%     83.33% # Class of executed instruction
system.cpu3.op_class::SimdReduceAlu                 0      0.00%     83.33% # Class of executed instruction
system.cpu3.op_class::SimdReduceCmp                 0      0.00%     83.33% # Class of executed instruction
system.cpu3.op_class::SimdFloatReduceAdd            0      0.00%     83.33% # Class of executed instruction
system.cpu3.op_class::SimdFloatReduceCmp            0      0.00%     83.33% # Class of executed instruction
system.cpu3.op_class::SimdAes                       0      0.00%     83.33% # Class of executed instruction
system.cpu3.op_class::SimdAesMix                    0      0.00%     83.33% # Class of executed instruction
system.cpu3.op_class::SimdSha1Hash                  0      0.00%     83.33% # Class of executed instruction
system.cpu3.op_class::SimdSha1Hash2                 0      0.00%     83.33% # Class of executed instruction
system.cpu3.op_class::SimdSha256Hash                0      0.00%     83.33% # Class of executed instruction
system.cpu3.op_class::SimdSha256Hash2               0      0.00%     83.33% # Class of executed instruction
system.cpu3.op_class::SimdShaSigma2                 0      0.00%     83.33% # Class of executed instruction
system.cpu3.op_class::SimdShaSigma3                 0      0.00%     83.33% # Class of executed instruction
system.cpu3.op_class::SimdPredAlu                   0      0.00%     83.33% # Class of executed instruction
system.cpu3.op_class::MemRead                       2      8.33%     91.67% # Class of executed instruction
system.cpu3.op_class::MemWrite                      2      8.33%    100.00% # Class of executed instruction
system.cpu3.op_class::FloatMemRead                  0      0.00%    100.00% # Class of executed instruction
system.cpu3.op_class::FloatMemWrite                 0      0.00%    100.00% # Class of executed instruction
system.cpu3.op_class::IprAccess                     0      0.00%    100.00% # Class of executed instruction
system.cpu3.op_class::InstPrefetch                  0      0.00%    100.00% # Class of executed instruction
system.cpu3.op_class::total                        24                       # Class of executed instruction
system.cpu3.workload.numSyscalls                    0                       # Number of system calls
system.l3bus.snoop_filter.hit_multi_requests            0                       # Number of requests hitting in the snoop filter with multiple (>1) holders of the requested data.
system.l3bus.snoop_filter.hit_multi_snoops            0                       # Number of snoops hitting in the snoop filter with multiple (>1) holders of the requested data.
system.l3bus.snoop_filter.hit_single_requests            0                       # Number of requests hitting in the snoop filter with a single holder of the requested data.
system.l3bus.snoop_filter.hit_single_snoops            0                       # Number of snoops hitting in the snoop filter with a single holder of the requested data.
system.l3bus.snoop_filter.tot_requests           6772                       # Total number of requests made to the snoop filter.
system.l3bus.snoop_filter.tot_snoops                0                       # Total number of snoops made to the snoop filter.
system.membus.snoop_filter.hit_multi_requests            0                       # Number of requests hitting in the snoop filter with multiple (>1) holders of the requested data.
system.membus.snoop_filter.hit_multi_snoops            0                       # Number of snoops hitting in the snoop filter with multiple (>1) holders of the requested data.
system.membus.snoop_filter.hit_single_requests            0                       # Number of requests hitting in the snoop filter with a single holder of the requested data.
system.membus.snoop_filter.hit_single_snoops            0                       # Number of snoops hitting in the snoop filter with a single holder of the requested data.
system.membus.snoop_filter.tot_requests          6772                       # Total number of requests made to the snoop filter.
system.membus.snoop_filter.tot_snoops               0                       # Total number of snoops made to the snoop filter.
system.switch_cpus0.cc_regfile_reads        236351451                       # number of cc regfile reads
system.switch_cpus0.cc_regfile_writes       244402099                       # number of cc regfile writes
system.switch_cpus0.committedInsts          249998871                       # Number of Instructions Simulated
system.switch_cpus0.committedOps            489295586                       # Number of Ops (including micro ops) Simulated
system.switch_cpus0.cpi                      0.570169                       # CPI: Cycles Per Instruction
system.switch_cpus0.cpi_total                0.570169                       # CPI: Total CPI of All Threads
system.switch_cpus0.fp_regfile_reads             6330                       # number of floating regfile reads
system.switch_cpus0.fp_regfile_writes            6395                       # number of floating regfile writes
system.switch_cpus0.idleCycles                 208757                       # Total number of cycles that the CPU has spent unscheduled due to idling
system.switch_cpus0.iew.branchMispredicts      3090195                       # Number of branch mispredicts detected at execute
system.switch_cpus0.iew.exec_branches        46285058                       # Number of branches executed
system.switch_cpus0.iew.exec_nop                    0                       # number of nop insts executed
system.switch_cpus0.iew.exec_rate            4.128996                       # Inst execution rate
system.switch_cpus0.iew.exec_refs           174193723                       # number of memory reference insts executed
system.switch_cpus0.iew.exec_stores          47231220                       # Number of stores executed
system.switch_cpus0.iew.exec_swp                    0                       # number of swp insts executed
system.switch_cpus0.iew.iewBlockCycles       18220408                       # Number of cycles IEW is blocking
system.switch_cpus0.iew.iewDispLoadInsts    138993588                       # Number of dispatched load instructions
system.switch_cpus0.iew.iewDispNonSpecInsts            0                       # Number of dispatched non-speculative instructions
system.switch_cpus0.iew.iewDispSquashedInsts        13301                       # Number of squashed instructions skipped by dispatch
system.switch_cpus0.iew.iewDispStoreInsts     55588780                       # Number of dispatched store instructions
system.switch_cpus0.iew.iewDispatchedInsts    644099070                       # Number of instructions dispatched to IQ
system.switch_cpus0.iew.iewExecLoadInsts    126962503                       # Number of load instructions executed
system.switch_cpus0.iew.iewExecSquashedInsts      8552885                       # Number of squashed instructions skipped in execute
system.switch_cpus0.iew.iewExecutedInsts    588554136                       # Number of executed instructions
system.switch_cpus0.iew.iewIQFullEvents            23                       # Number of times the IQ has become full, causing a stall
system.switch_cpus0.iew.iewIdleCycles               0                       # Number of cycles IEW is idle
system.switch_cpus0.iew.iewLSQFullEvents         3439                       # Number of times the LSQ has become full, causing a stall
system.switch_cpus0.iew.iewSquashCycles       2516744                       # Number of cycles IEW is squashing
system.switch_cpus0.iew.iewUnblockCycles         3471                       # Number of cycles IEW is unblocking
system.switch_cpus0.iew.memOrderViolationEvents        41513                       # Number of memory order violations
system.switch_cpus0.iew.predictedNotTakenIncorrect      1521978                       # Number of branches that were predicted not taken incorrectly
system.switch_cpus0.iew.predictedTakenIncorrect      1568217                       # Number of branches that were predicted taken incorrectly
system.switch_cpus0.iew.wb_consumers        658616884                       # num instructions consuming a value
system.switch_cpus0.iew.wb_count            584481995                       # cumulative count of insts written-back
system.switch_cpus0.iew.wb_fanout            0.668697                       # average fanout of values written-back
system.switch_cpus0.iew.wb_producers        440415074                       # num instructions producing a value
system.switch_cpus0.iew.wb_rate              4.100427                       # insts written-back per cycle
system.switch_cpus0.iew.wb_sent             587263544                       # cumulative count of insts sent to commit
system.switch_cpus0.int_regfile_reads       852603361                       # number of integer regfile reads
system.switch_cpus0.int_regfile_writes      494134678                       # number of integer regfile writes
system.switch_cpus0.ipc                      1.753865                       # IPC: Instructions Per Cycle
system.switch_cpus0.ipc_total                1.753865                       # IPC: Total IPC of All Threads
system.switch_cpus0.iq.FU_type_0::No_OpClass      1212347      0.20%      0.20% # Type of FU issued
system.switch_cpus0.iq.FU_type_0::IntAlu    413968211     69.33%     69.53% # Type of FU issued
system.switch_cpus0.iq.FU_type_0::IntMult      3578811      0.60%     70.13% # Type of FU issued
system.switch_cpus0.iq.FU_type_0::IntDiv        24111      0.00%     70.14% # Type of FU issued
system.switch_cpus0.iq.FU_type_0::FloatAdd            0      0.00%     70.14% # Type of FU issued
system.switch_cpus0.iq.FU_type_0::FloatCmp            0      0.00%     70.14% # Type of FU issued
system.switch_cpus0.iq.FU_type_0::FloatCvt            0      0.00%     70.14% # Type of FU issued
system.switch_cpus0.iq.FU_type_0::FloatMult            0      0.00%     70.14% # Type of FU issued
system.switch_cpus0.iq.FU_type_0::FloatMultAcc            0      0.00%     70.14% # Type of FU issued
system.switch_cpus0.iq.FU_type_0::FloatDiv            0      0.00%     70.14% # Type of FU issued
system.switch_cpus0.iq.FU_type_0::FloatMisc            0      0.00%     70.14% # Type of FU issued
system.switch_cpus0.iq.FU_type_0::FloatSqrt            0      0.00%     70.14% # Type of FU issued
system.switch_cpus0.iq.FU_type_0::SimdAdd            0      0.00%     70.14% # Type of FU issued
system.switch_cpus0.iq.FU_type_0::SimdAddAcc            0      0.00%     70.14% # Type of FU issued
system.switch_cpus0.iq.FU_type_0::SimdAlu            0      0.00%     70.14% # Type of FU issued
system.switch_cpus0.iq.FU_type_0::SimdCmp            0      0.00%     70.14% # Type of FU issued
system.switch_cpus0.iq.FU_type_0::SimdCvt            0      0.00%     70.14% # Type of FU issued
system.switch_cpus0.iq.FU_type_0::SimdMisc            0      0.00%     70.14% # Type of FU issued
system.switch_cpus0.iq.FU_type_0::SimdMult            0      0.00%     70.14% # Type of FU issued
system.switch_cpus0.iq.FU_type_0::SimdMultAcc            0      0.00%     70.14% # Type of FU issued
system.switch_cpus0.iq.FU_type_0::SimdShift            0      0.00%     70.14% # Type of FU issued
system.switch_cpus0.iq.FU_type_0::SimdShiftAcc            0      0.00%     70.14% # Type of FU issued
system.switch_cpus0.iq.FU_type_0::SimdDiv            0      0.00%     70.14% # Type of FU issued
system.switch_cpus0.iq.FU_type_0::SimdSqrt            0      0.00%     70.14% # Type of FU issued
system.switch_cpus0.iq.FU_type_0::SimdFloatAdd            0      0.00%     70.14% # Type of FU issued
system.switch_cpus0.iq.FU_type_0::SimdFloatAlu            0      0.00%     70.14% # Type of FU issued
system.switch_cpus0.iq.FU_type_0::SimdFloatCmp            0      0.00%     70.14% # Type of FU issued
system.switch_cpus0.iq.FU_type_0::SimdFloatCvt            0      0.00%     70.14% # Type of FU issued
system.switch_cpus0.iq.FU_type_0::SimdFloatDiv            0      0.00%     70.14% # Type of FU issued
system.switch_cpus0.iq.FU_type_0::SimdFloatMisc            0      0.00%     70.14% # Type of FU issued
system.switch_cpus0.iq.FU_type_0::SimdFloatMult            0      0.00%     70.14% # Type of FU issued
system.switch_cpus0.iq.FU_type_0::SimdFloatMultAcc            0      0.00%     70.14% # Type of FU issued
system.switch_cpus0.iq.FU_type_0::SimdFloatSqrt            0      0.00%     70.14% # Type of FU issued
system.switch_cpus0.iq.FU_type_0::SimdReduceAdd            0      0.00%     70.14% # Type of FU issued
system.switch_cpus0.iq.FU_type_0::SimdReduceAlu            0      0.00%     70.14% # Type of FU issued
system.switch_cpus0.iq.FU_type_0::SimdReduceCmp            0      0.00%     70.14% # Type of FU issued
system.switch_cpus0.iq.FU_type_0::SimdFloatReduceAdd            0      0.00%     70.14% # Type of FU issued
system.switch_cpus0.iq.FU_type_0::SimdFloatReduceCmp            0      0.00%     70.14% # Type of FU issued
system.switch_cpus0.iq.FU_type_0::SimdAes            0      0.00%     70.14% # Type of FU issued
system.switch_cpus0.iq.FU_type_0::SimdAesMix            0      0.00%     70.14% # Type of FU issued
system.switch_cpus0.iq.FU_type_0::SimdSha1Hash            0      0.00%     70.14% # Type of FU issued
system.switch_cpus0.iq.FU_type_0::SimdSha1Hash2            0      0.00%     70.14% # Type of FU issued
system.switch_cpus0.iq.FU_type_0::SimdSha256Hash            0      0.00%     70.14% # Type of FU issued
system.switch_cpus0.iq.FU_type_0::SimdSha256Hash2            0      0.00%     70.14% # Type of FU issued
system.switch_cpus0.iq.FU_type_0::SimdShaSigma2            0      0.00%     70.14% # Type of FU issued
system.switch_cpus0.iq.FU_type_0::SimdShaSigma3            0      0.00%     70.14% # Type of FU issued
system.switch_cpus0.iq.FU_type_0::SimdPredAlu            0      0.00%     70.14% # Type of FU issued
system.switch_cpus0.iq.FU_type_0::MemRead    130055249     21.78%     91.92% # Type of FU issued
system.switch_cpus0.iq.FU_type_0::MemWrite     48255558      8.08%    100.00% # Type of FU issued
system.switch_cpus0.iq.FU_type_0::FloatMemRead         6402      0.00%    100.00% # Type of FU issued
system.switch_cpus0.iq.FU_type_0::FloatMemWrite         6340      0.00%    100.00% # Type of FU issued
system.switch_cpus0.iq.FU_type_0::IprAccess            0      0.00%    100.00% # Type of FU issued
system.switch_cpus0.iq.FU_type_0::InstPrefetch            0      0.00%    100.00% # Type of FU issued
system.switch_cpus0.iq.FU_type_0::total     597107029                       # Type of FU issued
system.switch_cpus0.iq.fp_alu_accesses          18302                       # Number of floating point alu accesses
system.switch_cpus0.iq.fp_inst_queue_reads        31049                       # Number of floating instruction queue reads
system.switch_cpus0.iq.fp_inst_queue_wakeup_accesses        12646                       # Number of floating instruction queue wakeup accesses
system.switch_cpus0.iq.fp_inst_queue_writes        13386                       # Number of floating instruction queue writes
system.switch_cpus0.iq.fu_busy_cnt           18178970                       # FU busy when requested
system.switch_cpus0.iq.fu_busy_rate          0.030445                       # FU busy rate (busy events/executed inst)
system.switch_cpus0.iq.fu_full::No_OpClass            0      0.00%      0.00% # attempts to use FU when none available
system.switch_cpus0.iq.fu_full::IntAlu       11325357     62.30%     62.30% # attempts to use FU when none available
system.switch_cpus0.iq.fu_full::IntMult             0      0.00%     62.30% # attempts to use FU when none available
system.switch_cpus0.iq.fu_full::IntDiv              0      0.00%     62.30% # attempts to use FU when none available
system.switch_cpus0.iq.fu_full::FloatAdd            0      0.00%     62.30% # attempts to use FU when none available
system.switch_cpus0.iq.fu_full::FloatCmp            0      0.00%     62.30% # attempts to use FU when none available
system.switch_cpus0.iq.fu_full::FloatCvt            0      0.00%     62.30% # attempts to use FU when none available
system.switch_cpus0.iq.fu_full::FloatMult            0      0.00%     62.30% # attempts to use FU when none available
system.switch_cpus0.iq.fu_full::FloatMultAcc            0      0.00%     62.30% # attempts to use FU when none available
system.switch_cpus0.iq.fu_full::FloatDiv            0      0.00%     62.30% # attempts to use FU when none available
system.switch_cpus0.iq.fu_full::FloatMisc            0      0.00%     62.30% # attempts to use FU when none available
system.switch_cpus0.iq.fu_full::FloatSqrt            0      0.00%     62.30% # attempts to use FU when none available
system.switch_cpus0.iq.fu_full::SimdAdd             0      0.00%     62.30% # attempts to use FU when none available
system.switch_cpus0.iq.fu_full::SimdAddAcc            0      0.00%     62.30% # attempts to use FU when none available
system.switch_cpus0.iq.fu_full::SimdAlu             0      0.00%     62.30% # attempts to use FU when none available
system.switch_cpus0.iq.fu_full::SimdCmp             0      0.00%     62.30% # attempts to use FU when none available
system.switch_cpus0.iq.fu_full::SimdCvt             0      0.00%     62.30% # attempts to use FU when none available
system.switch_cpus0.iq.fu_full::SimdMisc            0      0.00%     62.30% # attempts to use FU when none available
system.switch_cpus0.iq.fu_full::SimdMult            0      0.00%     62.30% # attempts to use FU when none available
system.switch_cpus0.iq.fu_full::SimdMultAcc            0      0.00%     62.30% # attempts to use FU when none available
system.switch_cpus0.iq.fu_full::SimdShift            0      0.00%     62.30% # attempts to use FU when none available
system.switch_cpus0.iq.fu_full::SimdShiftAcc            0      0.00%     62.30% # attempts to use FU when none available
system.switch_cpus0.iq.fu_full::SimdDiv             0      0.00%     62.30% # attempts to use FU when none available
system.switch_cpus0.iq.fu_full::SimdSqrt            0      0.00%     62.30% # attempts to use FU when none available
system.switch_cpus0.iq.fu_full::SimdFloatAdd            0      0.00%     62.30% # attempts to use FU when none available
system.switch_cpus0.iq.fu_full::SimdFloatAlu            0      0.00%     62.30% # attempts to use FU when none available
system.switch_cpus0.iq.fu_full::SimdFloatCmp            0      0.00%     62.30% # attempts to use FU when none available
system.switch_cpus0.iq.fu_full::SimdFloatCvt            0      0.00%     62.30% # attempts to use FU when none available
system.switch_cpus0.iq.fu_full::SimdFloatDiv            0      0.00%     62.30% # attempts to use FU when none available
system.switch_cpus0.iq.fu_full::SimdFloatMisc            0      0.00%     62.30% # attempts to use FU when none available
system.switch_cpus0.iq.fu_full::SimdFloatMult            0      0.00%     62.30% # attempts to use FU when none available
system.switch_cpus0.iq.fu_full::SimdFloatMultAcc            0      0.00%     62.30% # attempts to use FU when none available
system.switch_cpus0.iq.fu_full::SimdFloatSqrt            0      0.00%     62.30% # attempts to use FU when none available
system.switch_cpus0.iq.fu_full::SimdReduceAdd            0      0.00%     62.30% # attempts to use FU when none available
system.switch_cpus0.iq.fu_full::SimdReduceAlu            0      0.00%     62.30% # attempts to use FU when none available
system.switch_cpus0.iq.fu_full::SimdReduceCmp            0      0.00%     62.30% # attempts to use FU when none available
system.switch_cpus0.iq.fu_full::SimdFloatReduceAdd            0      0.00%     62.30% # attempts to use FU when none available
system.switch_cpus0.iq.fu_full::SimdFloatReduceCmp            0      0.00%     62.30% # attempts to use FU when none available
system.switch_cpus0.iq.fu_full::SimdAes             0      0.00%     62.30% # attempts to use FU when none available
system.switch_cpus0.iq.fu_full::SimdAesMix            0      0.00%     62.30% # attempts to use FU when none available
system.switch_cpus0.iq.fu_full::SimdSha1Hash            0      0.00%     62.30% # attempts to use FU when none available
system.switch_cpus0.iq.fu_full::SimdSha1Hash2            0      0.00%     62.30% # attempts to use FU when none available
system.switch_cpus0.iq.fu_full::SimdSha256Hash            0      0.00%     62.30% # attempts to use FU when none available
system.switch_cpus0.iq.fu_full::SimdSha256Hash2            0      0.00%     62.30% # attempts to use FU when none available
system.switch_cpus0.iq.fu_full::SimdShaSigma2            0      0.00%     62.30% # attempts to use FU when none available
system.switch_cpus0.iq.fu_full::SimdShaSigma3            0      0.00%     62.30% # attempts to use FU when none available
system.switch_cpus0.iq.fu_full::SimdPredAlu            0      0.00%     62.30% # attempts to use FU when none available
system.switch_cpus0.iq.fu_full::MemRead       5673284     31.21%     93.51% # attempts to use FU when none available
system.switch_cpus0.iq.fu_full::MemWrite      1174769      6.46%     99.97% # attempts to use FU when none available
system.switch_cpus0.iq.fu_full::FloatMemRead         2368      0.01%     99.98% # attempts to use FU when none available
system.switch_cpus0.iq.fu_full::FloatMemWrite         3192      0.02%    100.00% # attempts to use FU when none available
system.switch_cpus0.iq.fu_full::IprAccess            0      0.00%    100.00% # attempts to use FU when none available
system.switch_cpus0.iq.fu_full::InstPrefetch            0      0.00%    100.00% # attempts to use FU when none available
system.switch_cpus0.iq.int_alu_accesses     614055350                       # Number of integer alu accesses
system.switch_cpus0.iq.int_inst_queue_reads   1356442400                       # Number of integer instruction queue reads
system.switch_cpus0.iq.int_inst_queue_wakeup_accesses    584469349                       # Number of integer instruction queue wakeup accesses
system.switch_cpus0.iq.int_inst_queue_writes    798929573                       # Number of integer instruction queue writes
system.switch_cpus0.iq.iqInstsAdded         644099070                       # Number of instructions added to the IQ (excludes non-spec)
system.switch_cpus0.iq.iqInstsIssued        597107029                       # Number of instructions issued
system.switch_cpus0.iq.iqSquashedInstsExamined    154803381                       # Number of squashed instructions iterated over during squash; mainly for profiling
system.switch_cpus0.iq.iqSquashedInstsIssued      1747463                       # Number of squashed instructions issued
system.switch_cpus0.iq.iqSquashedOperandsExamined    202701731                       # Number of squashed operands that are examined and possibly removed from graph
system.switch_cpus0.iq.issued_per_cycle::samples    142332966                       # Number of insts issued each cycle
system.switch_cpus0.iq.issued_per_cycle::mean     4.195142                       # Number of insts issued each cycle
system.switch_cpus0.iq.issued_per_cycle::stdev     2.863948                       # Number of insts issued each cycle
system.switch_cpus0.iq.issued_per_cycle::underflows            0      0.00%      0.00% # Number of insts issued each cycle
system.switch_cpus0.iq.issued_per_cycle::0     32378840     22.75%     22.75% # Number of insts issued each cycle
system.switch_cpus0.iq.issued_per_cycle::1      4836980      3.40%     26.15% # Number of insts issued each cycle
system.switch_cpus0.iq.issued_per_cycle::2      5978579      4.20%     30.35% # Number of insts issued each cycle
system.switch_cpus0.iq.issued_per_cycle::3      9476591      6.66%     37.01% # Number of insts issued each cycle
system.switch_cpus0.iq.issued_per_cycle::4     13781061      9.68%     46.69% # Number of insts issued each cycle
system.switch_cpus0.iq.issued_per_cycle::5     15216945     10.69%     57.38% # Number of insts issued each cycle
system.switch_cpus0.iq.issued_per_cycle::6     22250666     15.63%     73.01% # Number of insts issued each cycle
system.switch_cpus0.iq.issued_per_cycle::7     20136279     14.15%     87.16% # Number of insts issued each cycle
system.switch_cpus0.iq.issued_per_cycle::8     18277025     12.84%    100.00% # Number of insts issued each cycle
system.switch_cpus0.iq.issued_per_cycle::overflows            0      0.00%    100.00% # Number of insts issued each cycle
system.switch_cpus0.iq.issued_per_cycle::min_value            0                       # Number of insts issued each cycle
system.switch_cpus0.iq.issued_per_cycle::max_value            8                       # Number of insts issued each cycle
system.switch_cpus0.iq.issued_per_cycle::total    142332966                       # Number of insts issued each cycle
system.switch_cpus0.iq.rate                  4.188998                       # Inst issue rate
system.switch_cpus0.iq.vec_alu_accesses             0                       # Number of vector alu accesses
system.switch_cpus0.iq.vec_inst_queue_reads            0                       # Number of vector instruction queue reads
system.switch_cpus0.iq.vec_inst_queue_wakeup_accesses            0                       # Number of vector instruction queue wakeup accesses
system.switch_cpus0.iq.vec_inst_queue_writes            0                       # Number of vector instruction queue writes
system.switch_cpus0.memDep0.conflictingLoads     28352423                       # Number of conflicting loads.
system.switch_cpus0.memDep0.conflictingStores     17079269                       # Number of conflicting stores.
system.switch_cpus0.memDep0.insertedLoads    138993588                       # Number of loads inserted to the mem dependence unit.
system.switch_cpus0.memDep0.insertedStores     55588780                       # Number of stores inserted to the mem dependence unit.
system.switch_cpus0.misc_regfile_reads      282416442                       # number of misc regfile reads
system.switch_cpus0.misc_regfile_writes             1                       # number of misc regfile writes
system.switch_cpus0.numCycles               142541723                       # number of cpu cycles simulated
system.switch_cpus0.numWorkItemsCompleted            0                       # number of work items this cpu completed
system.switch_cpus0.numWorkItemsStarted             0                       # number of work items this cpu started
system.switch_cpus0.timesIdled                   1170                       # Number of times that the entire CPU went into an idle state and unscheduled itself
system.switch_cpus1.cc_regfile_reads        236351567                       # number of cc regfile reads
system.switch_cpus1.cc_regfile_writes       244402177                       # number of cc regfile writes
system.switch_cpus1.committedInsts          249998962                       # Number of Instructions Simulated
system.switch_cpus1.committedOps            489295751                       # Number of Ops (including micro ops) Simulated
system.switch_cpus1.cpi                      0.570169                       # CPI: Cycles Per Instruction
system.switch_cpus1.cpi_total                0.570169                       # CPI: Total CPI of All Threads
system.switch_cpus1.fp_regfile_reads             6330                       # number of floating regfile reads
system.switch_cpus1.fp_regfile_writes            6395                       # number of floating regfile writes
system.switch_cpus1.idleCycles                 208848                       # Total number of cycles that the CPU has spent unscheduled due to idling
system.switch_cpus1.iew.branchMispredicts      3090213                       # Number of branch mispredicts detected at execute
system.switch_cpus1.iew.exec_branches        46285098                       # Number of branches executed
system.switch_cpus1.iew.exec_nop                    0                       # number of nop insts executed
system.switch_cpus1.iew.exec_rate            4.129000                       # Inst execution rate
system.switch_cpus1.iew.exec_refs           174193956                       # number of memory reference insts executed
system.switch_cpus1.iew.exec_stores          47231290                       # Number of stores executed
system.switch_cpus1.iew.exec_swp                    0                       # number of swp insts executed
system.switch_cpus1.iew.iewBlockCycles       18220405                       # Number of cycles IEW is blocking
system.switch_cpus1.iew.iewDispLoadInsts    138993779                       # Number of dispatched load instructions
system.switch_cpus1.iew.iewDispNonSpecInsts            0                       # Number of dispatched non-speculative instructions
system.switch_cpus1.iew.iewDispSquashedInsts        13294                       # Number of squashed instructions skipped by dispatch
system.switch_cpus1.iew.iewDispStoreInsts     55588897                       # Number of dispatched store instructions
system.switch_cpus1.iew.iewDispatchedInsts    644099426                       # Number of instructions dispatched to IQ
system.switch_cpus1.iew.iewExecLoadInsts    126962666                       # Number of load instructions executed
system.switch_cpus1.iew.iewExecSquashedInsts      8552844                       # Number of squashed instructions skipped in execute
system.switch_cpus1.iew.iewExecutedInsts    588554716                       # Number of executed instructions
system.switch_cpus1.iew.iewIQFullEvents            24                       # Number of times the IQ has become full, causing a stall
system.switch_cpus1.iew.iewIdleCycles               0                       # Number of cycles IEW is idle
system.switch_cpus1.iew.iewLSQFullEvents         3355                       # Number of times the LSQ has become full, causing a stall
system.switch_cpus1.iew.iewSquashCycles       2516750                       # Number of cycles IEW is squashing
system.switch_cpus1.iew.iewUnblockCycles         3389                       # Number of cycles IEW is unblocking
system.switch_cpus1.iew.memOrderViolationEvents        41497                       # Number of memory order violations
system.switch_cpus1.iew.predictedNotTakenIncorrect      1521991                       # Number of branches that were predicted not taken incorrectly
system.switch_cpus1.iew.predictedTakenIncorrect      1568222                       # Number of branches that were predicted taken incorrectly
system.switch_cpus1.iew.wb_consumers        658616951                       # num instructions consuming a value
system.switch_cpus1.iew.wb_count            584482461                       # cumulative count of insts written-back
system.switch_cpus1.iew.wb_fanout            0.668697                       # average fanout of values written-back
system.switch_cpus1.iew.wb_producers        440415294                       # num instructions producing a value
system.switch_cpus1.iew.wb_rate              4.100431                       # insts written-back per cycle
system.switch_cpus1.iew.wb_sent             587264031                       # cumulative count of insts sent to commit
system.switch_cpus1.int_regfile_reads       852604215                       # number of integer regfile reads
system.switch_cpus1.int_regfile_writes      494135055                       # number of integer regfile writes
system.switch_cpus1.ipc                      1.753865                       # IPC: Instructions Per Cycle
system.switch_cpus1.ipc_total                1.753865                       # IPC: Total IPC of All Threads
system.switch_cpus1.iq.FU_type_0::No_OpClass      1212360      0.20%      0.20% # Type of FU issued
system.switch_cpus1.iq.FU_type_0::IntAlu    413968459     69.33%     69.53% # Type of FU issued
system.switch_cpus1.iq.FU_type_0::IntMult      3578812      0.60%     70.13% # Type of FU issued
system.switch_cpus1.iq.FU_type_0::IntDiv        24111      0.00%     70.14% # Type of FU issued
system.switch_cpus1.iq.FU_type_0::FloatAdd            0      0.00%     70.14% # Type of FU issued
system.switch_cpus1.iq.FU_type_0::FloatCmp            0      0.00%     70.14% # Type of FU issued
system.switch_cpus1.iq.FU_type_0::FloatCvt            0      0.00%     70.14% # Type of FU issued
system.switch_cpus1.iq.FU_type_0::FloatMult            0      0.00%     70.14% # Type of FU issued
system.switch_cpus1.iq.FU_type_0::FloatMultAcc            0      0.00%     70.14% # Type of FU issued
system.switch_cpus1.iq.FU_type_0::FloatDiv            0      0.00%     70.14% # Type of FU issued
system.switch_cpus1.iq.FU_type_0::FloatMisc            0      0.00%     70.14% # Type of FU issued
system.switch_cpus1.iq.FU_type_0::FloatSqrt            0      0.00%     70.14% # Type of FU issued
system.switch_cpus1.iq.FU_type_0::SimdAdd            0      0.00%     70.14% # Type of FU issued
system.switch_cpus1.iq.FU_type_0::SimdAddAcc            0      0.00%     70.14% # Type of FU issued
system.switch_cpus1.iq.FU_type_0::SimdAlu            0      0.00%     70.14% # Type of FU issued
system.switch_cpus1.iq.FU_type_0::SimdCmp            0      0.00%     70.14% # Type of FU issued
system.switch_cpus1.iq.FU_type_0::SimdCvt            0      0.00%     70.14% # Type of FU issued
system.switch_cpus1.iq.FU_type_0::SimdMisc            0      0.00%     70.14% # Type of FU issued
system.switch_cpus1.iq.FU_type_0::SimdMult            0      0.00%     70.14% # Type of FU issued
system.switch_cpus1.iq.FU_type_0::SimdMultAcc            0      0.00%     70.14% # Type of FU issued
system.switch_cpus1.iq.FU_type_0::SimdShift            0      0.00%     70.14% # Type of FU issued
system.switch_cpus1.iq.FU_type_0::SimdShiftAcc            0      0.00%     70.14% # Type of FU issued
system.switch_cpus1.iq.FU_type_0::SimdDiv            0      0.00%     70.14% # Type of FU issued
system.switch_cpus1.iq.FU_type_0::SimdSqrt            0      0.00%     70.14% # Type of FU issued
system.switch_cpus1.iq.FU_type_0::SimdFloatAdd            0      0.00%     70.14% # Type of FU issued
system.switch_cpus1.iq.FU_type_0::SimdFloatAlu            0      0.00%     70.14% # Type of FU issued
system.switch_cpus1.iq.FU_type_0::SimdFloatCmp            0      0.00%     70.14% # Type of FU issued
system.switch_cpus1.iq.FU_type_0::SimdFloatCvt            0      0.00%     70.14% # Type of FU issued
system.switch_cpus1.iq.FU_type_0::SimdFloatDiv            0      0.00%     70.14% # Type of FU issued
system.switch_cpus1.iq.FU_type_0::SimdFloatMisc            0      0.00%     70.14% # Type of FU issued
system.switch_cpus1.iq.FU_type_0::SimdFloatMult            0      0.00%     70.14% # Type of FU issued
system.switch_cpus1.iq.FU_type_0::SimdFloatMultAcc            0      0.00%     70.14% # Type of FU issued
system.switch_cpus1.iq.FU_type_0::SimdFloatSqrt            0      0.00%     70.14% # Type of FU issued
system.switch_cpus1.iq.FU_type_0::SimdReduceAdd            0      0.00%     70.14% # Type of FU issued
system.switch_cpus1.iq.FU_type_0::SimdReduceAlu            0      0.00%     70.14% # Type of FU issued
system.switch_cpus1.iq.FU_type_0::SimdReduceCmp            0      0.00%     70.14% # Type of FU issued
system.switch_cpus1.iq.FU_type_0::SimdFloatReduceAdd            0      0.00%     70.14% # Type of FU issued
system.switch_cpus1.iq.FU_type_0::SimdFloatReduceCmp            0      0.00%     70.14% # Type of FU issued
system.switch_cpus1.iq.FU_type_0::SimdAes            0      0.00%     70.14% # Type of FU issued
system.switch_cpus1.iq.FU_type_0::SimdAesMix            0      0.00%     70.14% # Type of FU issued
system.switch_cpus1.iq.FU_type_0::SimdSha1Hash            0      0.00%     70.14% # Type of FU issued
system.switch_cpus1.iq.FU_type_0::SimdSha1Hash2            0      0.00%     70.14% # Type of FU issued
system.switch_cpus1.iq.FU_type_0::SimdSha256Hash            0      0.00%     70.14% # Type of FU issued
system.switch_cpus1.iq.FU_type_0::SimdSha256Hash2            0      0.00%     70.14% # Type of FU issued
system.switch_cpus1.iq.FU_type_0::SimdShaSigma2            0      0.00%     70.14% # Type of FU issued
system.switch_cpus1.iq.FU_type_0::SimdShaSigma3            0      0.00%     70.14% # Type of FU issued
system.switch_cpus1.iq.FU_type_0::SimdPredAlu            0      0.00%     70.14% # Type of FU issued
system.switch_cpus1.iq.FU_type_0::MemRead    130055492     21.78%     91.92% # Type of FU issued
system.switch_cpus1.iq.FU_type_0::MemWrite     48255588      8.08%    100.00% # Type of FU issued
[...]
system.switch_cpus3.commit.numCommittedDist::stdev     3.228883                       # Number of insts commited each cycle
system.switch_cpus3.commit.numCommittedDist::underflows            0      0.00%      0.00% # Number of insts commited each cycle
system.switch_cpus3.commit.numCommittedDist::0     24251094     19.94%     19.94% # Number of insts commited each cycle
system.switch_cpus3.commit.numCommittedDist::1     18586019     15.29%     35.23% # Number of insts commited each cycle
system.switch_cpus3.commit.numCommittedDist::2      7137437      5.87%     41.10% # Number of insts commited each cycle
system.switch_cpus3.commit.numCommittedDist::3     12687851     10.43%     51.53% # Number of insts commited each cycle
system.switch_cpus3.commit.numCommittedDist::4      3828540      3.15%     54.68% # Number of insts commited each cycle
system.switch_cpus3.commit.numCommittedDist::5      7037489      5.79%     60.47% # Number of insts commited each cycle
system.switch_cpus3.commit.numCommittedDist::6      5889573      4.84%     65.31% # Number of insts commited each cycle
system.switch_cpus3.commit.numCommittedDist::7      4882346      4.02%     69.33% # Number of insts commited each cycle
system.switch_cpus3.commit.numCommittedDist::8     37294738     30.67%    100.00% # Number of insts commited each cycle
system.switch_cpus3.commit.numCommittedDist::overflows            0      0.00%    100.00% # Number of insts commited each cycle
system.switch_cpus3.commit.numCommittedDist::min_value            0                       # Number of insts commited each cycle
system.switch_cpus3.commit.numCommittedDist::max_value            8                       # Number of insts commited each cycle
system.switch_cpus3.commit.numCommittedDist::total    121595087                       # Number of insts commited each cycle
system.switch_cpus3.commit.instsCommitted    250000000                       # Number of instructions committed
system.switch_cpus3.commit.opsCommitted     489297815                       # Number of ops (including micro ops) committed
system.switch_cpus3.commit.memRefs          144801484                       # Number of memory references committed
system.switch_cpus3.commit.loads            101176795                       # Number of loads committed
system.switch_cpus3.commit.amos                     0                       # Number of atomic instructions committed
system.switch_cpus3.commit.membars                  0                       # Number of memory barriers committed
system.switch_cpus3.commit.branches          42318774                       # Number of branches committed
system.switch_cpus3.commit.vector                   0                       # Number of committed Vector instructions.
system.switch_cpus3.commit.floating             12358                       # Number of committed floating point instructions.
system.switch_cpus3.commit.integer          486637419                       # Number of committed integer instructions.
system.switch_cpus3.commit.functionCalls        81395                       # Number of function calls committed.
system.switch_cpus3.commit.committedInstType_0::No_OpClass      1018823      0.21%      0.21% # Class of committed instruction
system.switch_cpus3.commit.committedInstType_0::IntAlu    339908720     69.47%     69.68% # Class of committed instruction
system.switch_cpus3.commit.committedInstType_0::IntMult      3544708      0.72%     70.40% # Class of committed instruction
system.switch_cpus3.commit.committedInstType_0::IntDiv        24080      0.00%     70.41% # Class of committed instruction
system.switch_cpus3.commit.committedInstType_0::FloatAdd            0      0.00%     70.41% # Class of committed instruction
system.switch_cpus3.commit.committedInstType_0::FloatCmp            0      0.00%     70.41% # Class of committed instruction
system.switch_cpus3.commit.committedInstType_0::FloatCvt            0      0.00%     70.41% # Class of committed instruction
system.switch_cpus3.commit.committedInstType_0::FloatMult            0      0.00%     70.41% # Class of committed instruction
system.switch_cpus3.commit.committedInstType_0::FloatMultAcc            0      0.00%     70.41% # Class of committed instruction
system.switch_cpus3.commit.committedInstType_0::FloatDiv            0      0.00%     70.41% # Class of committed instruction
system.switch_cpus3.commit.committedInstType_0::FloatMisc            0      0.00%     70.41% # Class of committed instruction
system.switch_cpus3.commit.committedInstType_0::FloatSqrt            0      0.00%     70.41% # Class of committed instruction
system.switch_cpus3.commit.committedInstType_0::SimdAdd            0      0.00%     70.41% # Class of committed instruction
system.switch_cpus3.commit.committedInstType_0::SimdAddAcc            0      0.00%     70.41% # Class of committed instruction
system.switch_cpus3.commit.committedInstType_0::SimdAlu            0      0.00%     70.41% # Class of committed instruction
system.switch_cpus3.commit.committedInstType_0::SimdCmp            0      0.00%     70.41% # Class of committed instruction
system.switch_cpus3.commit.committedInstType_0::SimdCvt            0      0.00%     70.41% # Class of committed instruction
system.switch_cpus3.commit.committedInstType_0::SimdMisc            0      0.00%     70.41% # Class of committed instruction
system.switch_cpus3.commit.committedInstType_0::SimdMult            0      0.00%     70.41% # Class of committed instruction
system.switch_cpus3.commit.committedInstType_0::SimdMultAcc            0      0.00%     70.41% # Class of committed instruction
system.switch_cpus3.commit.committedInstType_0::SimdShift            0      0.00%     70.41% # Class of committed instruction
system.switch_cpus3.commit.committedInstType_0::SimdShiftAcc            0      0.00%     70.41% # Class of committed instruction
system.switch_cpus3.commit.committedInstType_0::SimdDiv            0      0.00%     70.41% # Class of committed instruction
system.switch_cpus3.commit.committedInstType_0::SimdSqrt            0      0.00%     70.41% # Class of committed instruction
system.switch_cpus3.commit.committedInstType_0::SimdFloatAdd            0      0.00%     70.41% # Class of committed instruction
system.switch_cpus3.commit.committedInstType_0::SimdFloatAlu            0      0.00%     70.41% # Class of committed instruction
system.switch_cpus3.commit.committedInstType_0::SimdFloatCmp            0      0.00%     70.41% # Class of committed instruction
system.switch_cpus3.commit.committedInstType_0::SimdFloatCvt            0      0.00%     70.41% # Class of committed instruction
system.switch_cpus3.commit.committedInstType_0::SimdFloatDiv            0      0.00%     70.41% # Class of committed instruction
system.switch_cpus3.commit.committedInstType_0::SimdFloatMisc            0      0.00%     70.41% # Class of committed instruction
system.switch_cpus3.commit.committedInstType_0::SimdFloatMult            0      0.00%     70.41% # Class of committed instruction
system.switch_cpus3.commit.committedInstType_0::SimdFloatMultAcc            0      0.00%     70.41% # Class of committed instruction
system.switch_cpus3.commit.committedInstType_0::SimdFloatSqrt            0      0.00%     70.41% # Class of committed instruction
system.switch_cpus3.commit.committedInstType_0::SimdReduceAdd            0      0.00%     70.41% # Class of committed instruction
system.switch_cpus3.commit.committedInstType_0::SimdReduceAlu            0      0.00%     70.41% # Class of committed instruction
system.switch_cpus3.commit.committedInstType_0::SimdReduceCmp            0      0.00%     70.41% # Class of committed instruction
system.switch_cpus3.commit.committedInstType_0::SimdFloatReduceAdd            0      0.00%     70.41% # Class of committed instruction
system.switch_cpus3.commit.committedInstType_0::SimdFloatReduceCmp            0      0.00%     70.41% # Class of committed instruction
system.switch_cpus3.commit.committedInstType_0::SimdAes            0      0.00%     70.41% # Class of committed instruction
system.switch_cpus3.commit.committedInstType_0::SimdAesMix            0      0.00%     70.41% # Class of committed instruction
system.switch_cpus3.commit.committedInstType_0::SimdSha1Hash            0      0.00%     70.41% # Class of committed instruction
system.switch_cpus3.commit.committedInstType_0::SimdSha1Hash2            0      0.00%     70.41% # Class of committed instruction
system.switch_cpus3.commit.committedInstType_0::SimdSha256Hash            0      0.00%     70.41% # Class of committed instruction
system.switch_cpus3.commit.committedInstType_0::SimdSha256Hash2            0      0.00%     70.41% # Class of committed instruction
system.switch_cpus3.commit.committedInstType_0::SimdShaSigma2            0      0.00%     70.41% # Class of committed instruction
system.switch_cpus3.commit.committedInstType_0::SimdShaSigma3            0      0.00%     70.41% # Class of committed instruction
system.switch_cpus3.commit.committedInstType_0::SimdPredAlu            0      0.00%     70.41% # Class of committed instruction
system.switch_cpus3.commit.committedInstType_0::MemRead    101170631     20.68%     91.08% # Class of committed instruction
system.switch_cpus3.commit.committedInstType_0::MemWrite     43618495      8.91%    100.00% # Class of committed instruction
system.switch_cpus3.commit.committedInstType_0::FloatMemRead         6164      0.00%    100.00% # Class of committed instruction
system.switch_cpus3.commit.committedInstType_0::FloatMemWrite         6194      0.00%    100.00% # Class of committed instruction
system.switch_cpus3.commit.committedInstType_0::IprAccess            0      0.00%    100.00% # Class of committed instruction
system.switch_cpus3.commit.committedInstType_0::InstPrefetch            0      0.00%    100.00% # Class of committed instruction
system.switch_cpus3.commit.committedInstType_0::total    489297815                       # Class of committed instruction
system.switch_cpus3.commit.commitEligibleSamples     37294738                       # number cycles where commit BW limit reached
system.switch_cpus3.decode.idleCycles        10672330                       # Number of cycles decode is idle
system.switch_cpus3.decode.blockedCycles     28586551                       # Number of cycles decode is blocked
system.switch_cpus3.decode.runCycles         90617882                       # Number of cycles decode is running
system.switch_cpus3.decode.unblockCycles      9935441                       # Number of cycles decode is unblocking
system.switch_cpus3.decode.squashCycles       2516738                       # Number of cycles decode is squashing
system.switch_cpus3.decode.branchResolved     33874012                       # Number of times decode resolved a  branch
system.switch_cpus3.decode.branchMispred        12219                       # Number of times decode detected a branch misprediction
system.switch_cpus3.decode.decodedInsts     686928604                       # Number of instructions handled by decode
system.switch_cpus3.decode.squashedInsts        53309                       # Number of squashed instructions handled by decode
system.switch_cpus3.dtb.rdAccesses          126963393                       # TLB accesses on read requests
system.switch_cpus3.dtb.wrAccesses           47231509                       # TLB accesses on write requests
system.switch_cpus3.dtb.rdMisses                   29                       # TLB misses on read requests
system.switch_cpus3.dtb.wrMisses                    4                       # TLB misses on write requests
system.switch_cpus3.dtb.walker.power_state.pwrStateResidencyTicks::UNDEFINED 19790311453092                       # Cumulative time (in ticks) in various power states
system.switch_cpus3.fetch.icacheStallCycles      2316266                       # Number of cycles fetch is stalled on an Icache miss
system.switch_cpus3.fetch.insts             369063241                       # Number of instructions fetch has processed
system.switch_cpus3.fetch.branches           62408250                       # Number of branches that fetch encountered
system.switch_cpus3.fetch.predictedBranches     35715659                       # Number of branches that fetch has predicted taken
system.switch_cpus3.fetch.cycles            137484012                       # Number of cycles fetch has run and was not squashing or blocked
system.switch_cpus3.fetch.squashCycles        5057344                       # Number of cycles fetch has spent squashing
system.switch_cpus3.fetch.cacheLines         53660298                       # Number of cache lines fetched
system.switch_cpus3.fetch.icacheSquashes         2848                       # Number of outstanding Icache misses that were squashed
system.switch_cpus3.fetch.nisnDist::samples    142328950                       # Number of instructions fetched each cycle (Total)
system.switch_cpus3.fetch.nisnDist::mean     5.073313                       # Number of instructions fetched each cycle (Total)
system.switch_cpus3.fetch.nisnDist::stdev     3.137820                       # Number of instructions fetched each cycle (Total)
system.switch_cpus3.fetch.nisnDist::underflows            0      0.00%      0.00% # Number of instructions fetched each cycle (Total)
system.switch_cpus3.fetch.nisnDist::0        21999601     15.46%     15.46% # Number of instructions fetched each cycle (Total)
system.switch_cpus3.fetch.nisnDist::1        10286277      7.23%     22.68% # Number of instructions fetched each cycle (Total)
system.switch_cpus3.fetch.nisnDist::2         4711795      3.31%     25.99% # Number of instructions fetched each cycle (Total)
system.switch_cpus3.fetch.nisnDist::3        12622144      8.87%     34.86% # Number of instructions fetched each cycle (Total)
system.switch_cpus3.fetch.nisnDist::4         6487331      4.56%     39.42% # Number of instructions fetched each cycle (Total)
system.switch_cpus3.fetch.nisnDist::5         8877842      6.24%     45.66% # Number of instructions fetched each cycle (Total)
system.switch_cpus3.fetch.nisnDist::6         7505685      5.27%     50.93% # Number of instructions fetched each cycle (Total)
system.switch_cpus3.fetch.nisnDist::7         9575836      6.73%     57.66% # Number of instructions fetched each cycle (Total)
system.switch_cpus3.fetch.nisnDist::8        60262439     42.34%    100.00% # Number of instructions fetched each cycle (Total)
system.switch_cpus3.fetch.nisnDist::overflows            0      0.00%    100.00% # Number of instructions fetched each cycle (Total)
system.switch_cpus3.fetch.nisnDist::min_value            0                       # Number of instructions fetched each cycle (Total)
system.switch_cpus3.fetch.nisnDist::max_value            8                       # Number of instructions fetched each cycle (Total)
system.switch_cpus3.fetch.nisnDist::total    142328950                       # Number of instructions fetched each cycle (Total)
system.switch_cpus3.fetch.branchRate         0.437824                       # Number of branch fetches per cycle
system.switch_cpus3.fetch.rate               2.589159                       # Number of inst fetches per cycle
system.switch_cpus3.itb.rdAccesses                  0                       # TLB accesses on read requests
system.switch_cpus3.itb.wrAccesses           53660298                       # TLB accesses on write requests
system.switch_cpus3.itb.rdMisses                    0                       # TLB misses on read requests
system.switch_cpus3.itb.wrMisses                   32                       # TLB misses on write requests
system.switch_cpus3.itb.walker.power_state.pwrStateResidencyTicks::UNDEFINED 19790311453092                       # Cumulative time (in ticks) in various power states
system.switch_cpus3.lsq0.forwLoads           14340732                       # Number of loads that had data forwarded from stores
system.switch_cpus3.lsq0.squashedLoads       37817485                       # Number of loads squashed
system.switch_cpus3.lsq0.ignoredResponses         4126                       # Number of memory responses ignored because the instruction is squashed
system.switch_cpus3.lsq0.memOrderViolation        41481                       # Number of memory ordering violations
system.switch_cpus3.lsq0.squashedStores      11964346                       # Number of stores squashed
system.switch_cpus3.lsq0.rescheduledLoads           14                       # Number of loads that were rescheduled
system.switch_cpus3.lsq0.blockedByCache             1                       # Number of times an access to memory failed due to the cache being blocked
system.switch_cpus3.power_state.pwrStateResidencyTicks::OFF  47466404415                       # Cumulative time (in ticks) in various power states
system.switch_cpus3.rename.squashCycles       2516738                       # Number of cycles rename is squashing
system.switch_cpus3.rename.idleCycles        15401630                       # Number of cycles rename is idle
system.switch_cpus3.rename.blockCycles       18202096                       # Number of cycles rename is blocking
system.switch_cpus3.rename.serializeStallCycles            0                       # count of cycles rename stalledfor serializing inst
system.switch_cpus3.rename.runCycles         95554517                       # Number of cycles rename is running
system.switch_cpus3.rename.unblockCycles     10653961                       # Number of cycles rename is unblocking
system.switch_cpus3.rename.renamedInsts     671110789                       # Number of instructions processed by rename
system.switch_cpus3.rename.ROBFullEvents        13920                       # Number of times rename has blocked due to ROB full
system.switch_cpus3.rename.IQFullEvents       1420355                       # Number of times rename has blocked due to IQ full
system.switch_cpus3.rename.LQFullEvents       7509943                       # Number of times rename has blocked due to LQ full
system.switch_cpus3.rename.SQFullEvents         34223                       # Number of times rename has blocked due to SQ full
system.switch_cpus3.rename.renamedOperands    847438153                       # Number of destination operands rename has renamed
system.switch_cpus3.rename.lookups         1630601049                       # Number of register rename lookups that rename has made
system.switch_cpus3.rename.intLookups      1001216014                       # Number of integer rename lookups
system.switch_cpus3.rename.fpLookups             6530                       # Number of floating rename lookups
system.switch_cpus3.rename.committedMaps    613590271                       # Number of HB maps that are committed
system.switch_cpus3.rename.undoneMaps       233847778                       # Number of HB maps that are undone due to squashing
system.switch_cpus3.rename.serializing              0                       # count of serializing insts renamed
system.switch_cpus3.rename.tempSerializing            0                       # count of temporary serializing insts renamed
system.switch_cpus3.rename.skidInsts         33640551                       # count of insts added to the skid buffer
system.switch_cpus3.rob.reads               728402059                       # The number of ROB reads
system.switch_cpus3.rob.writes             1308982522                       # The number of ROB writes
system.switch_cpus3.thread0.numInsts        250000000                       # Number of Instructions committed
system.switch_cpus3.thread0.numOps          489297815                       # Number of Ops committed
system.switch_cpus3.thread0.numMemRefs              0                       # Number of Memory References
system.voltage_domain.voltage                       1                       # Voltage in Volts

---------- End Simulation Statistics   ----------
