Command line:
./runscript_pride.sh deepsjeng RFM10.BR2.4C 4 2017 --rh_defense --rh_mitigation=RFM --rh_rfm_per_trefi=10 --rh_rfm_blast_radius=2 --rh_rfm_maxacts_per_trefi=79
Global frequency set at 1000000000000 ticks per second
RFM details - rfm_act_threshold: 7, blast_radius: 2, delay_per_rfm: 175000 ps. sample_rate: 0.125000
RH Defense config: RFM, Bus Delay: 0, rfms_per_trefi: 10, rfm_act_threshold: 7, blast_radius: 2,rfm_delay_per_act: 45000 ps.
DRAM config: RowsPerBank: 65536, BanksPerRank: 32, RanksPerChannel: 1
warn: Sockets disabled, not accepting gdb connections
warn: CoherentXBar system.cpu0.mmucache.mmubus has no snooping ports attached!
warn: CoherentXBar system.cpu1.mmucache.mmubus has no snooping ports attached!
warn: CoherentXBar system.cpu2.mmucache.mmubus has no snooping ports attached!
warn: CoherentXBar system.cpu3.mmucache.mmubus has no snooping ports attached!
warn: Checkpoints for file descriptors currently do not work.
warn: Checkpoints for file descriptors currently do not work.
warn: Checkpoints for file descriptors currently do not work.
warn: Checkpoints for file descriptors currently do not work.
gem5 Simulator System.  http://gem5.org
gem5 is copyrighted software; use the --copyright option for details.

gem5 version 20.1.0.5
gem5 compiled Jul 12 2024 12:42:38
gem5 started Jul 22 2024 18:29:37
gem5 executing on a07dda8b130c, pid 89798
command line: /home/user/PrIDE/performance/gem5/build/X86/gem5.opt --outdir=/home/user/PrIDE/performance/gem5/stats/pride_multiprogram_16GBmem_250Mn.SPEC2017.C4/RFM10.BR2.4C/deepsjeng /home/user/PrIDE/performance/gem5/configs/example/se_rq_spec_config_multicore.py --redirects /lib64=/home/utils/gcc-6.2.0/lib64 --benchmark=deepsjeng --benchmark_stdout=/home/user/PrIDE/performance/gem5/stats/pride_multiprogram_16GBmem_250Mn.SPEC2017.C4/RFM10.BR2.4C/deepsjeng/deepsjeng.out --benchmark_stderr=/home/user/PrIDE/performance/gem5/stats/pride_multiprogram_16GBmem_250Mn.SPEC2017.C4/RFM10.BR2.4C/deepsjeng/deepsjeng.err --spec-version=2017 --rh_defense --rh_mitigation=RFM --rh_rfm_per_trefi=10 --rh_rfm_blast_radius=2 --rh_rfm_maxacts_per_trefi=79 --num-cpus=4 --mem-size=16GB --mem-type=DDR5_2400_32x4 --mem-ranks=1 --checkpoint-dir=/home/user/PrIDE/performance/gem5/cpts/multiprogram_16GBmem_25Bn.SPEC2017.C4/deepsjeng-1-ref-x86 --checkpoint-restore=25000000000 --at-instruction --cpu-type DerivO3CPU --caches --l2cache --l1d_size=32kB --l1i_size=32kB --l2_size=256kB --l1d_assoc=8 --l1i_assoc=8 --l2_assoc=16 --maxinsts=250000000 --prog-interval=300Hz

info: Standard input is not a terminal, disabling listeners.
Benchmark- 0   deepsjeng
Selected benchmark
--> deepsjeng
CMD: ['/opt/spec2017/benchspec/CPU/531.deepsjeng_r/run/run_base_refrate_gem5_se-m64.0000/deepsjeng_r_base.gem5_se-m64', '/opt/spec2017/benchspec/CPU/531.deepsjeng_r/run/run_base_refrate_gem5_se-m64.0000/ref.txt']
CWD: /opt/spec2017/benchspec/CPU/531.deepsjeng_r/run/run_base_refrate_gem5_se-m64.0000/
Process stdout file: /home/user/PrIDE/performance/gem5/stats/pride_multiprogram_16GBmem_250Mn.SPEC2017.C4/RFM10.BR2.4C/deepsjeng/deepsjeng.out_0
Process stderr file: /home/user/PrIDE/performance/gem5/stats/pride_multiprogram_16GBmem_250Mn.SPEC2017.C4/RFM10.BR2.4C/deepsjeng/deepsjeng.err_0
Benchmark- 1   deepsjeng
Selected benchmark
--> deepsjeng
CMD: ['/opt/spec2017/benchspec/CPU/531.deepsjeng_r/run/run_base_refrate_gem5_se-m64.0000/deepsjeng_r_base.gem5_se-m64', '/opt/spec2017/benchspec/CPU/531.deepsjeng_r/run/run_base_refrate_gem5_se-m64.0000/ref.txt']
CWD: /opt/spec2017/benchspec/CPU/531.deepsjeng_r/run/run_base_refrate_gem5_se-m64.0000/
Process stdout file: /home/user/PrIDE/performance/gem5/stats/pride_multiprogram_16GBmem_250Mn.SPEC2017.C4/RFM10.BR2.4C/deepsjeng/deepsjeng.out_1
Process stderr file: /home/user/PrIDE/performance/gem5/stats/pride_multiprogram_16GBmem_250Mn.SPEC2017.C4/RFM10.BR2.4C/deepsjeng/deepsjeng.err_1
Benchmark- 2   deepsjeng
Selected benchmark
--> deepsjeng
CMD: ['/opt/spec2017/benchspec/CPU/531.deepsjeng_r/run/run_base_refrate_gem5_se-m64.0000/deepsjeng_r_base.gem5_se-m64', '/opt/spec2017/benchspec/CPU/531.deepsjeng_r/run/run_base_refrate_gem5_se-m64.0000/ref.txt']
CWD: /opt/spec2017/benchspec/CPU/531.deepsjeng_r/run/run_base_refrate_gem5_se-m64.0000/
Process stdout file: /home/user/PrIDE/performance/gem5/stats/pride_multiprogram_16GBmem_250Mn.SPEC2017.C4/RFM10.BR2.4C/deepsjeng/deepsjeng.out_2
Process stderr file: /home/user/PrIDE/performance/gem5/stats/pride_multiprogram_16GBmem_250Mn.SPEC2017.C4/RFM10.BR2.4C/deepsjeng/deepsjeng.err_2
Benchmark- 3   deepsjeng
Selected benchmark
--> deepsjeng
CMD: ['/opt/spec2017/benchspec/CPU/531.deepsjeng_r/run/run_base_refrate_gem5_se-m64.0000/deepsjeng_r_base.gem5_se-m64', '/opt/spec2017/benchspec/CPU/531.deepsjeng_r/run/run_base_refrate_gem5_se-m64.0000/ref.txt']
CWD: /opt/spec2017/benchspec/CPU/531.deepsjeng_r/run/run_base_refrate_gem5_se-m64.0000/
Process stdout file: /home/user/PrIDE/performance/gem5/stats/pride_multiprogram_16GBmem_250Mn.SPEC2017.C4/RFM10.BR2.4C/deepsjeng/deepsjeng.out_3
Process stderr file: /home/user/PrIDE/performance/gem5/stats/pride_multiprogram_16GBmem_250Mn.SPEC2017.C4/RFM10.BR2.4C/deepsjeng/deepsjeng.err_3
Workload-0: 
['/opt/spec2017/benchspec/CPU/531.deepsjeng_r/run/run_base_refrate_gem5_se-m64.0000/deepsjeng_r_base.gem5_se-m64', '/opt/spec2017/benchspec/CPU/531.deepsjeng_r/run/run_base_refrate_gem5_se-m64.0000/ref.txt']
Workload-1: 
['/opt/spec2017/benchspec/CPU/531.deepsjeng_r/run/run_base_refrate_gem5_se-m64.0000/deepsjeng_r_base.gem5_se-m64', '/opt/spec2017/benchspec/CPU/531.deepsjeng_r/run/run_base_refrate_gem5_se-m64.0000/ref.txt']
Workload-2: 
['/opt/spec2017/benchspec/CPU/531.deepsjeng_r/run/run_base_refrate_gem5_se-m64.0000/deepsjeng_r_base.gem5_se-m64', '/opt/spec2017/benchspec/CPU/531.deepsjeng_r/run/run_base_refrate_gem5_se-m64.0000/ref.txt']
Workload-3: 
['/opt/spec2017/benchspec/CPU/531.deepsjeng_r/run/run_base_refrate_gem5_se-m64.0000/deepsjeng_r_base.gem5_se-m64', '/opt/spec2017/benchspec/CPU/531.deepsjeng_r/run/run_base_refrate_gem5_se-m64.0000/ref.txt']
defense_enable:  True  detector:  MG  mitigation:  RFM  threshold:  800
mg_entries:  1700
rfm_maxacts_per_trefi:  79 rfm_per_trefi:  10 rfm_blast_radius:  2
Switch at curTick count:10000
warn: membus.master is deprecated. `master` is now called `mem_side_ports`
warn: No dot file generated. Please install pydot to generate the dot file and pdf.
info: Entering event queue @ 16546382633421.  Starting simulation...
warn: PowerState: Already in the requested power state, request ignored
Switched CPUS @ tick 16546382643421
switching cpus
**** REAL SIMULATION ****
info: Entering event queue @ 16546382643421.  Starting simulation...
16549715966754: Event_285: system.switch_cpus3 progress event, total committed:22216033, progress insts committed: 22216033, IPC: 02.21938
16549715966754: Event_284: system.switch_cpus2 progress event, total committed:22215978, progress insts committed: 22215978, IPC: 02.21938
16549715966754: Event_283: system.switch_cpus1 progress event, total committed:22270055, progress insts committed: 22270055, IPC: 02.22478
16549715966754: Event_282: system.switch_cpus0 progress event, total committed:22270001, progress insts committed: 22270001, IPC: 02.22477
16553049300087: Event_282: system.switch_cpus0 progress event, total committed:44821579, progress insts committed: 22551578, IPC: 002.2529
16553049300087: Event_283: system.switch_cpus1 progress event, total committed:44821595, progress insts committed: 22551540, IPC: 002.2529
16553049300087: Event_284: system.switch_cpus2 progress event, total committed:44722678, progress insts committed: 22506700, IPC: 02.24842
16553049300087: Event_285: system.switch_cpus3 progress event, total committed:44722685, progress insts committed: 22506652, IPC: 02.24841
16556382633420: Event_285: system.switch_cpus3 progress event, total committed:67084349, progress insts committed: 22361664, IPC: 02.23393
16556382633420: Event_284: system.switch_cpus2 progress event, total committed:67084364, progress insts committed: 22361686, IPC: 02.23393
16556382633420: Event_283: system.switch_cpus1 progress event, total committed:67187537, progress insts committed: 22365942, IPC: 02.23436
16556382633420: Event_282: system.switch_cpus0 progress event, total committed:67187569, progress insts committed: 22365990, IPC: 02.23436
16559715966753: Event_282: system.switch_cpus0 progress event, total committed:89583975, progress insts committed: 22396406, IPC: 002.2374
16559715966753: Event_283: system.switch_cpus1 progress event, total committed:89583961, progress insts committed: 22396424, IPC: 002.2374
16559715966753: Event_284: system.switch_cpus2 progress event, total committed:89475376, progress insts committed: 22391012, IPC: 02.23686
16559715966753: Event_285: system.switch_cpus3 progress event, total committed:89475418, progress insts committed: 22391069, IPC: 02.23687
16563049300086: Event_285: system.switch_cpus3 progress event, total committed:111140778, progress insts committed: 21665360, IPC: 02.16437
16563049300086: Event_284: system.switch_cpus2 progress event, total committed:111140778, progress insts committed: 21665402, IPC: 02.16437
16563049300086: Event_283: system.switch_cpus1 progress event, total committed:111240594, progress insts committed: 21656633, IPC: 002.1635
16563049300086: Event_282: system.switch_cpus0 progress event, total committed:111240594, progress insts committed: 21656619, IPC: 002.1635
16566382633419: Event_282: system.switch_cpus0 progress event, total committed:132543813, progress insts committed: 21303219, IPC: 02.12819
16566382633419: Event_283: system.switch_cpus1 progress event, total committed:132543830, progress insts committed: 21303236, IPC: 02.12819
16566382633419: Event_284: system.switch_cpus2 progress event, total committed:132443606, progress insts committed: 21302828, IPC: 02.12815
16566382633419: Event_285: system.switch_cpus3 progress event, total committed:132443670, progress insts committed: 21302892, IPC: 02.12816
16569715966752: Event_285: system.switch_cpus3 progress event, total committed:154130911, progress insts committed: 21687241, IPC: 02.16656
16569715966752: Event_284: system.switch_cpus2 progress event, total committed:154130941, progress insts committed: 21687335, IPC: 02.16656
16569715966752: Event_283: system.switch_cpus1 progress event, total committed:154233997, progress insts committed: 21690167, IPC: 02.16685
16569715966752: Event_282: system.switch_cpus0 progress event, total committed:154234234, progress insts committed: 21690421, IPC: 02.16687
16573049300085: Event_282: system.switch_cpus0 progress event, total committed:176037281, progress insts committed: 21803047, IPC: 02.17812
16573049300085: Event_283: system.switch_cpus1 progress event, total committed:176037250, progress insts committed: 21803253, IPC: 02.17814
16573049300085: Event_284: system.switch_cpus2 progress event, total committed:175973140, progress insts committed: 21842199, IPC: 02.18204
16573049300085: Event_285: system.switch_cpus3 progress event, total committed:175971713, progress insts committed: 21840802, IPC: 002.1819
16576382633418: Event_285: system.switch_cpus3 progress event, total committed:197428754, progress insts committed: 21457041, IPC: 02.14356
16576382633418: Event_284: system.switch_cpus2 progress event, total committed:197436743, progress insts committed: 21463603, IPC: 02.14421
16576382633418: Event_283: system.switch_cpus1 progress event, total committed:197486458, progress insts committed: 21449208, IPC: 02.14278
16576382633418: Event_282: system.switch_cpus0 progress event, total committed:197481875, progress insts committed: 21444594, IPC: 02.14231
16579715966751: Event_282: system.switch_cpus0 progress event, total committed:219406484, progress insts committed: 21924609, IPC: 02.19027
16579715966751: Event_283: system.switch_cpus1 progress event, total committed:219406445, progress insts committed: 21919987, IPC: 02.18981
16579715966751: Event_284: system.switch_cpus2 progress event, total committed:219329500, progress insts committed: 21892757, IPC: 02.18709
16579715966751: Event_285: system.switch_cpus3 progress event, total committed:219329500, progress insts committed: 21900746, IPC: 02.18788
16583049300084: Event_285: system.switch_cpus3 progress event, total committed:241392596, progress insts committed: 22063096, IPC: 002.2041
16583049300084: Event_284: system.switch_cpus2 progress event, total committed:241392596, progress insts committed: 22063096, IPC: 002.2041
16583049300084: Event_283: system.switch_cpus1 progress event, total committed:241454640, progress insts committed: 22048195, IPC: 02.20261
16583049300084: Event_282: system.switch_cpus0 progress event, total committed:241454729, progress insts committed: 22048245, IPC: 02.20262
16586382633417: Event_282: system.switch_cpus0 progress event, total committed:263537614, progress insts committed: 22082885, IPC: 02.20608
16586382633417: Event_283: system.switch_cpus1 progress event, total committed:263537596, progress insts committed: 22082956, IPC: 02.20609
16586382633417: Event_284: system.switch_cpus2 progress event, total committed:263467371, progress insts committed: 22074775, IPC: 02.20527
16586382633417: Event_285: system.switch_cpus3 progress event, total committed:263481512, progress insts committed: 22088916, IPC: 02.20668
16589715966750: Event_285: system.switch_cpus3 progress event, total committed:285528519, progress insts committed: 22047007, IPC: 002.2025
16589715966750: Event_284: system.switch_cpus2 progress event, total committed:285528534, progress insts committed: 22061163, IPC: 02.20391
16589715966750: Event_283: system.switch_cpus1 progress event, total committed:285562855, progress insts committed: 22025259, IPC: 02.20032
16589715966750: Event_282: system.switch_cpus0 progress event, total committed:285562826, progress insts committed: 22025212, IPC: 02.20032
16593049300083: Event_282: system.switch_cpus0 progress event, total committed:308291572, progress insts committed: 22728746, IPC: 002.2706
16593049300083: Event_283: system.switch_cpus1 progress event, total committed:308291561, progress insts committed: 22728706, IPC: 002.2706
16593049300083: Event_284: system.switch_cpus2 progress event, total committed:308202218, progress insts committed: 22673684, IPC: 002.2651
16593049300083: Event_285: system.switch_cpus3 progress event, total committed:308202175, progress insts committed: 22673656, IPC: 002.2651
16596382633416: Event_285: system.switch_cpus3 progress event, total committed:330958900, progress insts committed: 22756725, IPC: 002.2734
16596382633416: Event_284: system.switch_cpus2 progress event, total committed:330958803, progress insts committed: 22756585, IPC: 02.27338
16596382633416: Event_283: system.switch_cpus1 progress event, total committed:331017122, progress insts committed: 22725561, IPC: 02.27028
16596382633416: Event_282: system.switch_cpus0 progress event, total committed:331017034, progress insts committed: 22725462, IPC: 02.27027
16599715966749: Event_282: system.switch_cpus0 progress event, total committed:352971313, progress insts committed: 21954279, IPC: 02.19323
16599715966749: Event_283: system.switch_cpus1 progress event, total committed:352977816, progress insts committed: 21960694, IPC: 02.19387
16599715966749: Event_284: system.switch_cpus2 progress event, total committed:352911221, progress insts committed: 21952418, IPC: 02.19305
16599715966749: Event_285: system.switch_cpus3 progress event, total committed:352911226, progress insts committed: 21952326, IPC: 02.19304
16603049300082: Event_285: system.switch_cpus3 progress event, total committed:374594772, progress insts committed: 21683546, IPC: 02.16619
16603049300082: Event_284: system.switch_cpus2 progress event, total committed:374595649, progress insts committed: 21684428, IPC: 02.16627
16603049300082: Event_283: system.switch_cpus1 progress event, total committed:374674564, progress insts committed: 21696748, IPC: 02.16751
16603049300082: Event_282: system.switch_cpus0 progress event, total committed:374674448, progress insts committed: 21703135, IPC: 02.16814
16606382633415: Event_282: system.switch_cpus0 progress event, total committed:396643231, progress insts committed: 21968783, IPC: 02.19468
16606382633415: Event_283: system.switch_cpus1 progress event, total committed:396643298, progress insts committed: 21968734, IPC: 02.19468
16606382633415: Event_284: system.switch_cpus2 progress event, total committed:396552445, progress insts committed: 21956796, IPC: 02.19348
16606382633415: Event_285: system.switch_cpus3 progress event, total committed:396552525, progress insts committed: 21957753, IPC: 02.19358
Exiting @ tick 16607525489694 because a thread reached the max instruction count
