
---------- Begin Simulation Statistics ----------
final_tick                               16607525489694                       # Number of ticks from beginning of simulation (restored from checkpoints and never reset)
host_inst_rate                                 138424                       # Simulator instruction rate (inst/s)
host_mem_usage                               17511916                       # Number of bytes of host memory used
host_op_rate                                   223769                       # Simulator op (including micro ops) rate (op/s)
host_seconds                                  7223.09                       # Real time elapsed on the host
host_tick_rate                                8464918                       # Simulator tick rate (ticks/s)
sim_freq                                 1000000000000                       # Frequency of simulated ticks
sim_insts                                   999851760                       # Number of instructions simulated
sim_ops                                    1616306633                       # Number of ops (including micro ops) simulated
sim_seconds                                  0.061143                       # Number of seconds simulated
sim_ticks                                 61142856273                       # Number of ticks simulated
system.cpu0.Branches                                2                       # Number of branches fetched
system.cpu0.committedInsts                         18                       # Number of instructions committed
system.cpu0.committedOps                           25                       # Number of ops (including micro ops) committed
system.cpu0.idle_fraction                           0                       # Percentage of idle cycles
system.cpu0.l2bus.snoop_filter.hit_multi_requests         1185                       # Number of requests hitting in the snoop filter with multiple (>1) holders of the requested data.
system.cpu0.l2bus.snoop_filter.hit_multi_snoops            2                       # Number of snoops hitting in the snoop filter with multiple (>1) holders of the requested data.
system.cpu0.l2bus.snoop_filter.hit_single_requests       544001                       # Number of requests hitting in the snoop filter with a single holder of the requested data.
system.cpu0.l2bus.snoop_filter.hit_single_snoops         4742                       # Number of snoops hitting in the snoop filter with a single holder of the requested data.
system.cpu0.l2bus.snoop_filter.tot_requests      1088295                       # Total number of requests made to the snoop filter.
system.cpu0.l2bus.snoop_filter.tot_snoops         4744                       # Total number of snoops made to the snoop filter.
system.cpu0.mmucache.mmubus.snoop_filter.hit_multi_requests            0                       # Number of requests hitting in the snoop filter with multiple (>1) holders of the requested data.
system.cpu0.mmucache.mmubus.snoop_filter.hit_multi_snoops            0                       # Number of snoops hitting in the snoop filter with multiple (>1) holders of the requested data.
system.cpu0.mmucache.mmubus.snoop_filter.hit_single_requests            0                       # Number of requests hitting in the snoop filter with a single holder of the requested data.
system.cpu0.mmucache.mmubus.snoop_filter.hit_single_snoops            0                       # Number of snoops hitting in the snoop filter with a single holder of the requested data.
system.cpu0.mmucache.mmubus.snoop_filter.tot_requests            0                       # Total number of requests made to the snoop filter.
system.cpu0.mmucache.mmubus.snoop_filter.tot_snoops            0                       # Total number of snoops made to the snoop filter.
system.cpu0.not_idle_fraction                       1                       # Percentage of non-idle cycles
system.cpu0.numCycles                              30                       # number of cpu cycles simulated
system.cpu0.numWorkItemsCompleted                   0                       # number of work items this cpu completed
system.cpu0.numWorkItemsStarted                     0                       # number of work items this cpu started
system.cpu0.num_busy_cycles                        30                       # Number of busy cycles
system.cpu0.num_cc_register_reads                  13                       # number of times the CC registers were read
system.cpu0.num_cc_register_writes                 18                       # number of times the CC registers were written
system.cpu0.num_conditional_control_insts            1                       # number of instructions that are conditional controls
system.cpu0.num_fp_alu_accesses                     0                       # Number of float alu accesses
system.cpu0.num_fp_insts                            0                       # number of float instructions
system.cpu0.num_fp_register_reads                   0                       # number of times the floating registers were read
system.cpu0.num_fp_register_writes                  0                       # number of times the floating registers were written
system.cpu0.num_func_calls                          0                       # number of times a function call or return occured
system.cpu0.num_idle_cycles                         0                       # Number of idle cycles
system.cpu0.num_int_alu_accesses                   25                       # Number of integer alu accesses
system.cpu0.num_int_insts                          25                       # number of integer instructions
system.cpu0.num_int_register_reads                 43                       # number of times the integer registers were read
system.cpu0.num_int_register_writes                23                       # number of times the integer registers were written
system.cpu0.num_load_insts                          4                       # Number of load instructions
system.cpu0.num_mem_refs                            4                       # number of memory refs
system.cpu0.num_store_insts                         0                       # Number of store instructions
system.cpu0.num_vec_alu_accesses                    0                       # Number of vector alu accesses
system.cpu0.num_vec_insts                           0                       # number of vector instructions
system.cpu0.num_vec_register_reads                  0                       # number of times the vector registers were read
system.cpu0.num_vec_register_writes                 0                       # number of times the vector registers were written
system.cpu0.op_class::No_OpClass                    0      0.00%      0.00% # Class of executed instruction
system.cpu0.op_class::IntAlu                       21     84.00%     84.00% # Class of executed instruction
system.cpu0.op_class::IntMult                       0      0.00%     84.00% # Class of executed instruction
system.cpu0.op_class::IntDiv                        0      0.00%     84.00% # Class of executed instruction
system.cpu0.op_class::FloatAdd                      0      0.00%     84.00% # Class of executed instruction
system.cpu0.op_class::FloatCmp                      0      0.00%     84.00% # Class of executed instruction
system.cpu0.op_class::FloatCvt                      0      0.00%     84.00% # Class of executed instruction
system.cpu0.op_class::FloatMult                     0      0.00%     84.00% # Class of executed instruction
system.cpu0.op_class::FloatMultAcc                  0      0.00%     84.00% # Class of executed instruction
system.cpu0.op_class::FloatDiv                      0      0.00%     84.00% # Class of executed instruction
system.cpu0.op_class::FloatMisc                     0      0.00%     84.00% # Class of executed instruction
system.cpu0.op_class::FloatSqrt                     0      0.00%     84.00% # Class of executed instruction
system.cpu0.op_class::SimdAdd                       0      0.00%     84.00% # Class of executed instruction
system.cpu0.op_class::SimdAddAcc                    0      0.00%     84.00% # Class of executed instruction
system.cpu0.op_class::SimdAlu                       0      0.00%     84.00% # Class of executed instruction
system.cpu0.op_class::SimdCmp                       0      0.00%     84.00% # Class of executed instruction
system.cpu0.op_class::SimdCvt                       0      0.00%     84.00% # Class of executed instruction
system.cpu0.op_class::SimdMisc                      0      0.00%     84.00% # Class of executed instruction
system.cpu0.op_class::SimdMult                      0      0.00%     84.00% # Class of executed instruction
system.cpu0.op_class::SimdMultAcc                   0      0.00%     84.00% # Class of executed instruction
system.cpu0.op_class::SimdShift                     0      0.00%     84.00% # Class of executed instruction
system.cpu0.op_class::SimdShiftAcc                  0      0.00%     84.00% # Class of executed instruction
system.cpu0.op_class::SimdDiv                       0      0.00%     84.00% # Class of executed instruction
system.cpu0.op_class::SimdSqrt                      0      0.00%     84.00% # Class of executed instruction
system.cpu0.op_class::SimdFloatAdd                  0      0.00%     84.00% # Class of executed instruction
system.cpu0.op_class::SimdFloatAlu                  0      0.00%     84.00% # Class of executed instruction
system.cpu0.op_class::SimdFloatCmp                  0      0.00%     84.00% # Class of executed instruction
system.cpu0.op_class::SimdFloatCvt                  0      0.00%     84.00% # Class of executed instruction
system.cpu0.op_class::SimdFloatDiv                  0      0.00%     84.00% # Class of executed instruction
system.cpu0.op_class::SimdFloatMisc                 0      0.00%     84.00% # Class of executed instruction
system.cpu0.op_class::SimdFloatMult                 0      0.00%     84.00% # Class of executed instruction
system.cpu0.op_class::SimdFloatMultAcc              0      0.00%     84.00% # Class of executed instruction
system.cpu0.op_class::SimdFloatSqrt                 0      0.00%     84.00% # Class of executed instruction
system.cpu0.op_class::SimdReduceAdd                 0      0.00%     84.00% # Class of executed instruction
system.cpu0.op_class::SimdReduceAlu                 0      0.00%     84.00% # Class of executed instruction
system.cpu0.op_class::SimdReduceCmp                 0      0.00%     84.00% # Class of executed instruction
system.cpu0.op_class::SimdFloatReduceAdd            0      0.00%     84.00% # Class of executed instruction
system.cpu0.op_class::SimdFloatReduceCmp            0      0.00%     84.00% # Class of executed instruction
system.cpu0.op_class::SimdAes                       0      0.00%     84.00% # Class of executed instruction
system.cpu0.op_class::SimdAesMix                    0      0.00%     84.00% # Class of executed instruction
system.cpu0.op_class::SimdSha1Hash                  0      0.00%     84.00% # Class of executed instruction
system.cpu0.op_class::SimdSha1Hash2                 0      0.00%     84.00% # Class of executed instruction
system.cpu0.op_class::SimdSha256Hash                0      0.00%     84.00% # Class of executed instruction
system.cpu0.op_class::SimdSha256Hash2               0      0.00%     84.00% # Class of executed instruction
system.cpu0.op_class::SimdShaSigma2                 0      0.00%     84.00% # Class of executed instruction
system.cpu0.op_class::SimdShaSigma3                 0      0.00%     84.00% # Class of executed instruction
system.cpu0.op_class::SimdPredAlu                   0      0.00%     84.00% # Class of executed instruction
system.cpu0.op_class::MemRead                       4     16.00%    100.00% # Class of executed instruction
system.cpu0.op_class::MemWrite                      0      0.00%    100.00% # Class of executed instruction
system.cpu0.op_class::FloatMemRead                  0      0.00%    100.00% # Class of executed instruction
system.cpu0.op_class::FloatMemWrite                 0      0.00%    100.00% # Class of executed instruction
system.cpu0.op_class::IprAccess                     0      0.00%    100.00% # Class of executed instruction
system.cpu0.op_class::InstPrefetch                  0      0.00%    100.00% # Class of executed instruction
system.cpu0.op_class::total                        25                       # Class of executed instruction
system.cpu0.workload.numSyscalls                    0                       # Number of system calls
system.cpu1.Branches                                2                       # Number of branches fetched
system.cpu1.committedInsts                         18                       # Number of instructions committed
system.cpu1.committedOps                           25                       # Number of ops (including micro ops) committed
system.cpu1.idle_fraction                           0                       # Percentage of idle cycles
system.cpu1.l2bus.snoop_filter.hit_multi_requests         1182                       # Number of requests hitting in the snoop filter with multiple (>1) holders of the requested data.
system.cpu1.l2bus.snoop_filter.hit_multi_snoops            0                       # Number of snoops hitting in the snoop filter with multiple (>1) holders of the requested data.
system.cpu1.l2bus.snoop_filter.hit_single_requests       543755                       # Number of requests hitting in the snoop filter with a single holder of the requested data.
system.cpu1.l2bus.snoop_filter.hit_single_snoops         2886                       # Number of snoops hitting in the snoop filter with a single holder of the requested data.
system.cpu1.l2bus.snoop_filter.tot_requests      1087912                       # Total number of requests made to the snoop filter.
system.cpu1.l2bus.snoop_filter.tot_snoops         2886                       # Total number of snoops made to the snoop filter.
system.cpu1.mmucache.mmubus.snoop_filter.hit_multi_requests            0                       # Number of requests hitting in the snoop filter with multiple (>1) holders of the requested data.
system.cpu1.mmucache.mmubus.snoop_filter.hit_multi_snoops            0                       # Number of snoops hitting in the snoop filter with multiple (>1) holders of the requested data.
system.cpu1.mmucache.mmubus.snoop_filter.hit_single_requests            0                       # Number of requests hitting in the snoop filter with a single holder of the requested data.
system.cpu1.mmucache.mmubus.snoop_filter.hit_single_snoops            0                       # Number of snoops hitting in the snoop filter with a single holder of the requested data.
system.cpu1.mmucache.mmubus.snoop_filter.tot_requests            0                       # Total number of requests made to the snoop filter.
system.cpu1.mmucache.mmubus.snoop_filter.tot_snoops            0                       # Total number of snoops made to the snoop filter.
system.cpu1.not_idle_fraction                       1                       # Percentage of non-idle cycles
system.cpu1.numCycles                              30                       # number of cpu cycles simulated
system.cpu1.numWorkItemsCompleted                   0                       # number of work items this cpu completed
system.cpu1.numWorkItemsStarted                     0                       # number of work items this cpu started
system.cpu1.num_busy_cycles                        30                       # Number of busy cycles
system.cpu1.num_cc_register_reads                  13                       # number of times the CC registers were read
system.cpu1.num_cc_register_writes                 18                       # number of times the CC registers were written
system.cpu1.num_conditional_control_insts            1                       # number of instructions that are conditional controls
system.cpu1.num_fp_alu_accesses                     0                       # Number of float alu accesses
system.cpu1.num_fp_insts                            0                       # number of float instructions
system.cpu1.num_fp_register_reads                   0                       # number of times the floating registers were read
system.cpu1.num_fp_register_writes                  0                       # number of times the floating registers were written
system.cpu1.num_func_calls                          0                       # number of times a function call or return occured
system.cpu1.num_idle_cycles                         0                       # Number of idle cycles
system.cpu1.num_int_alu_accesses                   25                       # Number of integer alu accesses
system.cpu1.num_int_insts                          25                       # number of integer instructions
system.cpu1.num_int_register_reads                 43                       # number of times the integer registers were read
system.cpu1.num_int_register_writes                23                       # number of times the integer registers were written
system.cpu1.num_load_insts                          4                       # Number of load instructions
system.cpu1.num_mem_refs                            4                       # number of memory refs
system.cpu1.num_store_insts                         0                       # Number of store instructions
system.cpu1.num_vec_alu_accesses                    0                       # Number of vector alu accesses
system.cpu1.num_vec_insts                           0                       # number of vector instructions
system.cpu1.num_vec_register_reads                  0                       # number of times the vector registers were read
system.cpu1.num_vec_register_writes                 0                       # number of times the vector registers were written
system.cpu1.op_class::No_OpClass                    0      0.00%      0.00% # Class of executed instruction
system.cpu1.op_class::IntAlu                       21     84.00%     84.00% # Class of executed instruction
system.cpu1.op_class::IntMult                       0      0.00%     84.00% # Class of executed instruction
system.cpu1.op_class::IntDiv                        0      0.00%     84.00% # Class of executed instruction
system.cpu1.op_class::FloatAdd                      0      0.00%     84.00% # Class of executed instruction
system.cpu1.op_class::FloatCmp                      0      0.00%     84.00% # Class of executed instruction
system.cpu1.op_class::FloatCvt                      0      0.00%     84.00% # Class of executed instruction
system.cpu1.op_class::FloatMult                     0      0.00%     84.00% # Class of executed instruction
system.cpu1.op_class::FloatMultAcc                  0      0.00%     84.00% # Class of executed instruction
system.cpu1.op_class::FloatDiv                      0      0.00%     84.00% # Class of executed instruction
system.cpu1.op_class::FloatMisc                     0      0.00%     84.00% # Class of executed instruction
system.cpu1.op_class::FloatSqrt                     0      0.00%     84.00% # Class of executed instruction
system.cpu1.op_class::SimdAdd                       0      0.00%     84.00% # Class of executed instruction
system.cpu1.op_class::SimdAddAcc                    0      0.00%     84.00% # Class of executed instruction
system.cpu1.op_class::SimdAlu                       0      0.00%     84.00% # Class of executed instruction
system.cpu1.op_class::SimdCmp                       0      0.00%     84.00% # Class of executed instruction
system.cpu1.op_class::SimdCvt                       0      0.00%     84.00% # Class of executed instruction
system.cpu1.op_class::SimdMisc                      0      0.00%     84.00% # Class of executed instruction
system.cpu1.op_class::SimdMult                      0      0.00%     84.00% # Class of executed instruction
system.cpu1.op_class::SimdMultAcc                   0      0.00%     84.00% # Class of executed instruction
system.cpu1.op_class::SimdShift                     0      0.00%     84.00% # Class of executed instruction
system.cpu1.op_class::SimdShiftAcc                  0      0.00%     84.00% # Class of executed instruction
system.cpu1.op_class::SimdDiv                       0      0.00%     84.00% # Class of executed instruction
system.cpu1.op_class::SimdSqrt                      0      0.00%     84.00% # Class of executed instruction
system.cpu1.op_class::SimdFloatAdd                  0      0.00%     84.00% # Class of executed instruction
system.cpu1.op_class::SimdFloatAlu                  0      0.00%     84.00% # Class of executed instruction
system.cpu1.op_class::SimdFloatCmp                  0      0.00%     84.00% # Class of executed instruction
system.cpu1.op_class::SimdFloatCvt                  0      0.00%     84.00% # Class of executed instruction
system.cpu1.op_class::SimdFloatDiv                  0      0.00%     84.00% # Class of executed instruction
system.cpu1.op_class::SimdFloatMisc                 0      0.00%     84.00% # Class of executed instruction
system.cpu1.op_class::SimdFloatMult                 0      0.00%     84.00% # Class of executed instruction
system.cpu1.op_class::SimdFloatMultAcc              0      0.00%     84.00% # Class of executed instruction
system.cpu1.op_class::SimdFloatSqrt                 0      0.00%     84.00% # Class of executed instruction
system.cpu1.op_class::SimdReduceAdd                 0      0.00%     84.00% # Class of executed instruction
system.cpu1.op_class::SimdReduceAlu                 0      0.00%     84.00% # Class of executed instruction
system.cpu1.op_class::SimdReduceCmp                 0      0.00%     84.00% # Class of executed instruction
system.cpu1.op_class::SimdFloatReduceAdd            0      0.00%     84.00% # Class of executed instruction
system.cpu1.op_class::SimdFloatReduceCmp            0      0.00%     84.00% # Class of executed instruction
system.cpu1.op_class::SimdAes                       0      0.00%     84.00% # Class of executed instruction
system.cpu1.op_class::SimdAesMix                    0      0.00%     84.00% # Class of executed instruction
system.cpu1.op_class::SimdSha1Hash                  0      0.00%     84.00% # Class of executed instruction
system.cpu1.op_class::SimdSha1Hash2                 0      0.00%     84.00% # Class of executed instruction
system.cpu1.op_class::SimdSha256Hash                0      0.00%     84.00% # Class of executed instruction
system.cpu1.op_class::SimdSha256Hash2               0      0.00%     84.00% # Class of executed instruction
system.cpu1.op_class::SimdShaSigma2                 0      0.00%     84.00% # Class of executed instruction
system.cpu1.op_class::SimdShaSigma3                 0      0.00%     84.00% # Class of executed instruction
system.cpu1.op_class::SimdPredAlu                   0      0.00%     84.00% # Class of executed instruction
system.cpu1.op_class::MemRead                       4     16.00%    100.00% # Class of executed instruction
system.cpu1.op_class::MemWrite                      0      0.00%    100.00% # Class of executed instruction
system.cpu1.op_class::FloatMemRead                  0      0.00%    100.00% # Class of executed instruction
system.cpu1.op_class::FloatMemWrite                 0      0.00%    100.00% # Class of executed instruction
system.cpu1.op_class::IprAccess                     0      0.00%    100.00% # Class of executed instruction
system.cpu1.op_class::InstPrefetch                  0      0.00%    100.00% # Class of executed instruction
system.cpu1.op_class::total                        25                       # Class of executed instruction
system.cpu1.workload.numSyscalls                    0                       # Number of system calls
system.cpu2.Branches                                2                       # Number of branches fetched
system.cpu2.committedInsts                         18                       # Number of instructions committed
system.cpu2.committedOps                           25                       # Number of ops (including micro ops) committed
system.cpu2.idle_fraction                           0                       # Percentage of idle cycles
system.cpu2.l2bus.snoop_filter.hit_multi_requests         1006                       # Number of requests hitting in the snoop filter with multiple (>1) holders of the requested data.
system.cpu2.l2bus.snoop_filter.hit_multi_snoops            0                       # Number of snoops hitting in the snoop filter with multiple (>1) holders of the requested data.
system.cpu2.l2bus.snoop_filter.hit_single_requests       543653                       # Number of requests hitting in the snoop filter with a single holder of the requested data.
system.cpu2.l2bus.snoop_filter.hit_single_snoops         4738                       # Number of snoops hitting in the snoop filter with a single holder of the requested data.
system.cpu2.l2bus.snoop_filter.tot_requests      1087598                       # Total number of requests made to the snoop filter.
system.cpu2.l2bus.snoop_filter.tot_snoops         4738                       # Total number of snoops made to the snoop filter.
system.cpu2.mmucache.mmubus.snoop_filter.hit_multi_requests            0                       # Number of requests hitting in the snoop filter with multiple (>1) holders of the requested data.
system.cpu2.mmucache.mmubus.snoop_filter.hit_multi_snoops            0                       # Number of snoops hitting in the snoop filter with multiple (>1) holders of the requested data.
system.cpu2.mmucache.mmubus.snoop_filter.hit_single_requests            0                       # Number of requests hitting in the snoop filter with a single holder of the requested data.
system.cpu2.mmucache.mmubus.snoop_filter.hit_single_snoops            0                       # Number of snoops hitting in the snoop filter with a single holder of the requested data.
system.cpu2.mmucache.mmubus.snoop_filter.tot_requests            0                       # Total number of requests made to the snoop filter.
system.cpu2.mmucache.mmubus.snoop_filter.tot_snoops            0                       # Total number of snoops made to the snoop filter.
system.cpu2.not_idle_fraction                       1                       # Percentage of non-idle cycles
system.cpu2.numCycles                              30                       # number of cpu cycles simulated
system.cpu2.numWorkItemsCompleted                   0                       # number of work items this cpu completed
system.cpu2.numWorkItemsStarted                     0                       # number of work items this cpu started
system.cpu2.num_busy_cycles                        30                       # Number of busy cycles
system.cpu2.num_cc_register_reads                  13                       # number of times the CC registers were read
system.cpu2.num_cc_register_writes                 18                       # number of times the CC registers were written
system.cpu2.num_conditional_control_insts            1                       # number of instructions that are conditional controls
system.cpu2.num_fp_alu_accesses                     0                       # Number of float alu accesses
system.cpu2.num_fp_insts                            0                       # number of float instructions
system.cpu2.num_fp_register_reads                   0                       # number of times the floating registers were read
system.cpu2.num_fp_register_writes                  0                       # number of times the floating registers were written
system.cpu2.num_func_calls                          0                       # number of times a function call or return occured
system.cpu2.num_idle_cycles                         0                       # Number of idle cycles
system.cpu2.num_int_alu_accesses                   25                       # Number of integer alu accesses
system.cpu2.num_int_insts                          25                       # number of integer instructions
system.cpu2.num_int_register_reads                 43                       # number of times the integer registers were read
system.cpu2.num_int_register_writes                23                       # number of times the integer registers were written
system.cpu2.num_load_insts                          4                       # Number of load instructions
system.cpu2.num_mem_refs                            4                       # number of memory refs
system.cpu2.num_store_insts                         0                       # Number of store instructions
system.cpu2.num_vec_alu_accesses                    0                       # Number of vector alu accesses
system.cpu2.num_vec_insts                           0                       # number of vector instructions
system.cpu2.num_vec_register_reads                  0                       # number of times the vector registers were read
system.cpu2.num_vec_register_writes                 0                       # number of times the vector registers were written
system.cpu2.op_class::No_OpClass                    0      0.00%      0.00% # Class of executed instruction
system.cpu2.op_class::IntAlu                       21     84.00%     84.00% # Class of executed instruction
system.cpu2.op_class::IntMult                       0      0.00%     84.00% # Class of executed instruction
system.cpu2.op_class::IntDiv                        0      0.00%     84.00% # Class of executed instruction
system.cpu2.op_class::FloatAdd                      0      0.00%     84.00% # Class of executed instruction
system.cpu2.op_class::FloatCmp                      0      0.00%     84.00% # Class of executed instruction
system.cpu2.op_class::FloatCvt                      0      0.00%     84.00% # Class of executed instruction
system.cpu2.op_class::FloatMult                     0      0.00%     84.00% # Class of executed instruction
system.cpu2.op_class::FloatMultAcc                  0      0.00%     84.00% # Class of executed instruction
system.cpu2.op_class::FloatDiv                      0      0.00%     84.00% # Class of executed instruction
system.cpu2.op_class::FloatMisc                     0      0.00%     84.00% # Class of executed instruction
system.cpu2.op_class::FloatSqrt                     0      0.00%     84.00% # Class of executed instruction
system.cpu2.op_class::SimdAdd                       0      0.00%     84.00% # Class of executed instruction
system.cpu2.op_class::SimdAddAcc                    0      0.00%     84.00% # Class of executed instruction
system.cpu2.op_class::SimdAlu                       0      0.00%     84.00% # Class of executed instruction
system.cpu2.op_class::SimdCmp                       0      0.00%     84.00% # Class of executed instruction
system.cpu2.op_class::SimdCvt                       0      0.00%     84.00% # Class of executed instruction
system.cpu2.op_class::SimdMisc                      0      0.00%     84.00% # Class of executed instruction
system.cpu2.op_class::SimdMult                      0      0.00%     84.00% # Class of executed instruction
system.cpu2.op_class::SimdMultAcc                   0      0.00%     84.00% # Class of executed instruction
system.cpu2.op_class::SimdShift                     0      0.00%     84.00% # Class of executed instruction
system.cpu2.op_class::SimdShiftAcc                  0      0.00%     84.00% # Class of executed instruction
system.cpu2.op_class::SimdDiv                       0      0.00%     84.00% # Class of executed instruction
system.cpu2.op_class::SimdSqrt                      0      0.00%     84.00% # Class of executed instruction
system.cpu2.op_class::SimdFloatAdd                  0      0.00%     84.00% # Class of executed instruction
system.cpu2.op_class::SimdFloatAlu                  0      0.00%     84.00% # Class of executed instruction
system.cpu2.op_class::SimdFloatCmp                  0      0.00%     84.00% # Class of executed instruction
system.cpu2.op_class::SimdFloatCvt                  0      0.00%     84.00% # Class of executed instruction
system.cpu2.op_class::SimdFloatDiv                  0      0.00%     84.00% # Class of executed instruction
system.cpu2.op_class::SimdFloatMisc                 0      0.00%     84.00% # Class of executed instruction
system.cpu2.op_class::SimdFloatMult                 0      0.00%     84.00% # Class of executed instruction
system.cpu2.op_class::SimdFloatMultAcc              0      0.00%     84.00% # Class of executed instruction
system.cpu2.op_class::SimdFloatSqrt                 0      0.00%     84.00% # Class of executed instruction
system.cpu2.op_class::SimdReduceAdd                 0      0.00%     84.00% # Class of executed instruction
system.cpu2.op_class::SimdReduceAlu                 0      0.00%     84.00% # Class of executed instruction
system.cpu2.op_class::SimdReduceCmp                 0      0.00%     84.00% # Class of executed instruction
system.cpu2.op_class::SimdFloatReduceAdd            0      0.00%     84.00% # Class of executed instruction
system.cpu2.op_class::SimdFloatReduceCmp            0      0.00%     84.00% # Class of executed instruction
system.cpu2.op_class::SimdAes                       0      0.00%     84.00% # Class of executed instruction
system.cpu2.op_class::SimdAesMix                    0      0.00%     84.00% # Class of executed instruction
system.cpu2.op_class::SimdSha1Hash                  0      0.00%     84.00% # Class of executed instruction
system.cpu2.op_class::SimdSha1Hash2                 0      0.00%     84.00% # Class of executed instruction
system.cpu2.op_class::SimdSha256Hash                0      0.00%     84.00% # Class of executed instruction
system.cpu2.op_class::SimdSha256Hash2               0      0.00%     84.00% # Class of executed instruction
system.cpu2.op_class::SimdShaSigma2                 0      0.00%     84.00% # Class of executed instruction
system.cpu2.op_class::SimdShaSigma3                 0      0.00%     84.00% # Class of executed instruction
system.cpu2.op_class::SimdPredAlu                   0      0.00%     84.00% # Class of executed instruction
system.cpu2.op_class::MemRead                       4     16.00%    100.00% # Class of executed instruction
system.cpu2.op_class::MemWrite                      0      0.00%    100.00% # Class of executed instruction
system.cpu2.op_class::FloatMemRead                  0      0.00%    100.00% # Class of executed instruction
system.cpu2.op_class::FloatMemWrite                 0      0.00%    100.00% # Class of executed instruction
system.cpu2.op_class::IprAccess                     0      0.00%    100.00% # Class of executed instruction
system.cpu2.op_class::InstPrefetch                  0      0.00%    100.00% # Class of executed instruction
system.cpu2.op_class::total                        25                       # Class of executed instruction
system.cpu2.workload.numSyscalls                    0                       # Number of system calls
system.cpu3.Branches                                2                       # Number of branches fetched
system.cpu3.committedInsts                         18                       # Number of instructions committed
system.cpu3.committedOps                           25                       # Number of ops (including micro ops) committed
system.cpu3.idle_fraction                           0                       # Percentage of idle cycles
system.cpu3.l2bus.snoop_filter.hit_multi_requests         1179                       # Number of requests hitting in the snoop filter with multiple (>1) holders of the requested data.
system.cpu3.l2bus.snoop_filter.hit_multi_snoops            0                       # Number of snoops hitting in the snoop filter with multiple (>1) holders of the requested data.
system.cpu3.l2bus.snoop_filter.hit_single_requests       543559                       # Number of requests hitting in the snoop filter with a single holder of the requested data.
system.cpu3.l2bus.snoop_filter.hit_single_snoops         2890                       # Number of snoops hitting in the snoop filter with a single holder of the requested data.
system.cpu3.l2bus.snoop_filter.tot_requests      1087525                       # Total number of requests made to the snoop filter.
system.cpu3.l2bus.snoop_filter.tot_snoops         2890                       # Total number of snoops made to the snoop filter.
system.cpu3.mmucache.mmubus.snoop_filter.hit_multi_requests            0                       # Number of requests hitting in the snoop filter with multiple (>1) holders of the requested data.
system.cpu3.mmucache.mmubus.snoop_filter.hit_multi_snoops            0                       # Number of snoops hitting in the snoop filter with multiple (>1) holders of the requested data.
system.cpu3.mmucache.mmubus.snoop_filter.hit_single_requests            0                       # Number of requests hitting in the snoop filter with a single holder of the requested data.
system.cpu3.mmucache.mmubus.snoop_filter.hit_single_snoops            0                       # Number of snoops hitting in the snoop filter with a single holder of the requested data.
system.cpu3.mmucache.mmubus.snoop_filter.tot_requests            0                       # Total number of requests made to the snoop filter.
system.cpu3.mmucache.mmubus.snoop_filter.tot_snoops            0                       # Total number of snoops made to the snoop filter.
system.cpu3.not_idle_fraction                       1                       # Percentage of non-idle cycles
system.cpu3.numCycles                              30                       # number of cpu cycles simulated
system.cpu3.numWorkItemsCompleted                   0                       # number of work items this cpu completed
system.cpu3.numWorkItemsStarted                     0                       # number of work items this cpu started
system.cpu3.num_busy_cycles                        30                       # Number of busy cycles
system.cpu3.num_cc_register_reads                  13                       # number of times the CC registers were read
system.cpu3.num_cc_register_writes                 18                       # number of times the CC registers were written
system.cpu3.num_conditional_control_insts            1                       # number of instructions that are conditional controls
system.cpu3.num_fp_alu_accesses                     0                       # Number of float alu accesses
system.cpu3.num_fp_insts                            0                       # number of float instructions
system.cpu3.num_fp_register_reads                   0                       # number of times the floating registers were read
system.cpu3.num_fp_register_writes                  0                       # number of times the floating registers were written
system.cpu3.num_func_calls                          0                       # number of times a function call or return occured
system.cpu3.num_idle_cycles                         0                       # Number of idle cycles
system.cpu3.num_int_alu_accesses                   25                       # Number of integer alu accesses
system.cpu3.num_int_insts                          25                       # number of integer instructions
system.cpu3.num_int_register_reads                 43                       # number of times the integer registers were read
system.cpu3.num_int_register_writes                23                       # number of times the integer registers were written
system.cpu3.num_load_insts                          4                       # Number of load instructions
system.cpu3.num_mem_refs                            4                       # number of memory refs
system.cpu3.num_store_insts                         0                       # Number of store instructions
system.cpu3.num_vec_alu_accesses                    0                       # Number of vector alu accesses
system.cpu3.num_vec_insts                           0                       # number of vector instructions
system.cpu3.num_vec_register_reads                  0                       # number of times the vector registers were read
system.cpu3.num_vec_register_writes                 0                       # number of times the vector registers were written
system.cpu3.op_class::No_OpClass                    0      0.00%      0.00% # Class of executed instruction
system.cpu3.op_class::IntAlu                       21     84.00%     84.00% # Class of executed instruction
system.cpu3.op_class::IntMult                       0      0.00%     84.00% # Class of executed instruction
system.cpu3.op_class::IntDiv                        0      0.00%     84.00% # Class of executed instruction
system.cpu3.op_class::FloatAdd                      0      0.00%     84.00% # Class of executed instruction
system.cpu3.op_class::FloatCmp                      0      0.00%     84.00% # Class of executed instruction
system.cpu3.op_class::FloatCvt                      0      0.00%     84.00% # Class of executed instruction
system.cpu3.op_class::FloatMult                     0      0.00%     84.00% # Class of executed instruction
system.cpu3.op_class::FloatMultAcc                  0      0.00%     84.00% # Class of executed instruction
system.cpu3.op_class::FloatDiv                      0      0.00%     84.00% # Class of executed instruction
system.cpu3.op_class::FloatMisc                     0      0.00%     84.00% # Class of executed instruction
system.cpu3.op_class::FloatSqrt                     0      0.00%     84.00% # Class of executed instruction
system.cpu3.op_class::SimdAdd                       0      0.00%     84.00% # Class of executed instruction
system.cpu3.op_class::SimdAddAcc                    0      0.00%     84.00% # Class of executed instruction
system.cpu3.op_class::SimdAlu                       0      0.00%     84.00% # Class of executed instruction
system.cpu3.op_class::SimdCmp                       0      0.00%     84.00% # Class of executed instruction
system.cpu3.op_class::SimdCvt                       0      0.00%     84.00% # Class of executed instruction
system.cpu3.op_class::SimdMisc                      0      0.00%     84.00% # Class of executed instruction
system.cpu3.op_class::SimdMult                      0      0.00%     84.00% # Class of executed instruction
system.cpu3.op_class::SimdMultAcc                   0      0.00%     84.00% # Class of executed instruction
system.cpu3.op_class::SimdShift                     0      0.00%     84.00% # Class of executed instruction
system.cpu3.op_class::SimdShiftAcc                  0      0.00%     84.00% # Class of executed instruction
system.cpu3.op_class::SimdDiv                       0      0.00%     84.00% # Class of executed instruction
system.cpu3.op_class::SimdSqrt                      0      0.00%     84.00% # Class of executed instruction
system.cpu3.op_class::SimdFloatAdd                  0      0.00%     84.00% # Class of executed instruction
system.cpu3.op_class::SimdFloatAlu                  0      0.00%     84.00% # Class of executed instruction
system.cpu3.op_class::SimdFloatCmp                  0      0.00%     84.00% # Class of executed instruction
system.cpu3.op_class::SimdFloatCvt                  0      0.00%     84.00% # Class of executed instruction
system.cpu3.op_class::SimdFloatDiv                  0      0.00%     84.00% # Class of executed instruction
system.cpu3.op_class::SimdFloatMisc                 0      0.00%     84.00% # Class of executed instruction
system.cpu3.op_class::SimdFloatMult                 0      0.00%     84.00% # Class of executed instruction
system.cpu3.op_class::SimdFloatMultAcc              0      0.00%     84.00% # Class of executed instruction
system.cpu3.op_class::SimdFloatSqrt                 0      0.00%     84.00% # Class of executed instruction
system.cpu3.op_class::SimdReduceAdd                 0      0.00%     84.00% # Class of executed instruction
system.cpu3.op_class::SimdReduceAlu                 0      0.00%     84.00% # Class of executed instruction
system.cpu3.op_class::SimdReduceCmp                 0      0.00%     84.00% # Class of executed instruction
system.cpu3.op_class::SimdFloatReduceAdd            0      0.00%     84.00% # Class of executed instruction
system.cpu3.op_class::SimdFloatReduceCmp            0      0.00%     84.00% # Class of executed instruction
system.cpu3.op_class::SimdAes                       0      0.00%     84.00% # Class of executed instruction
system.cpu3.op_class::SimdAesMix                    0      0.00%     84.00% # Class of executed instruction
system.cpu3.op_class::SimdSha1Hash                  0      0.00%     84.00% # Class of executed instruction
system.cpu3.op_class::SimdSha1Hash2                 0      0.00%     84.00% # Class of executed instruction
system.cpu3.op_class::SimdSha256Hash                0      0.00%     84.00% # Class of executed instruction
system.cpu3.op_class::SimdSha256Hash2               0      0.00%     84.00% # Class of executed instruction
system.cpu3.op_class::SimdShaSigma2                 0      0.00%     84.00% # Class of executed instruction
system.cpu3.op_class::SimdShaSigma3                 0      0.00%     84.00% # Class of executed instruction
system.cpu3.op_class::SimdPredAlu                   0      0.00%     84.00% # Class of executed instruction
system.cpu3.op_class::MemRead                       4     16.00%    100.00% # Class of executed instruction
system.cpu3.op_class::MemWrite                      0      0.00%    100.00% # Class of executed instruction
system.cpu3.op_class::FloatMemRead                  0      0.00%    100.00% # Class of executed instruction
system.cpu3.op_class::FloatMemWrite                 0      0.00%    100.00% # Class of executed instruction
system.cpu3.op_class::IprAccess                     0      0.00%    100.00% # Class of executed instruction
system.cpu3.op_class::InstPrefetch                  0      0.00%    100.00% # Class of executed instruction
system.cpu3.op_class::total                        25                       # Class of executed instruction
system.cpu3.workload.numSyscalls                    0                       # Number of system calls
system.l3bus.snoop_filter.hit_multi_requests            0                       # Number of requests hitting in the snoop filter with multiple (>1) holders of the requested data.
system.l3bus.snoop_filter.hit_multi_snoops            0                       # Number of snoops hitting in the snoop filter with multiple (>1) holders of the requested data.
system.l3bus.snoop_filter.hit_single_requests       338153                       # Number of requests hitting in the snoop filter with a single holder of the requested data.
system.l3bus.snoop_filter.hit_single_snoops            0                       # Number of snoops hitting in the snoop filter with a single holder of the requested data.
system.l3bus.snoop_filter.tot_requests         689378                       # Total number of requests made to the snoop filter.
system.l3bus.snoop_filter.tot_snoops                0                       # Total number of snoops made to the snoop filter.
system.membus.snoop_filter.hit_multi_requests            0                       # Number of requests hitting in the snoop filter with multiple (>1) holders of the requested data.
system.membus.snoop_filter.hit_multi_snoops            0                       # Number of snoops hitting in the snoop filter with multiple (>1) holders of the requested data.
system.membus.snoop_filter.hit_single_requests       230470                       # Number of requests hitting in the snoop filter with a single holder of the requested data.
system.membus.snoop_filter.hit_single_snoops            0                       # Number of snoops hitting in the snoop filter with a single holder of the requested data.
system.membus.snoop_filter.tot_requests        539208                       # Total number of requests made to the snoop filter.
system.membus.snoop_filter.tot_snoops               0                       # Total number of snoops made to the snoop filter.
system.switch_cpus0.cc_regfile_reads        223622562                       # number of cc regfile reads
system.switch_cpus0.cc_regfile_writes       199559882                       # number of cc regfile writes
system.switch_cpus0.committedInsts          250000000                       # Number of Instructions Simulated
system.switch_cpus0.committedOps            404136868                       # Number of Ops (including micro ops) Simulated
system.switch_cpus0.cpi                      0.734449                       # CPI: Cycles Per Instruction
system.switch_cpus0.cpi_total                0.734449                       # CPI: Total CPI of All Threads
system.switch_cpus0.fp_regfile_reads           230364                       # number of floating regfile reads
system.switch_cpus0.fp_regfile_writes          230472                       # number of floating regfile writes
system.switch_cpus0.idleCycles                 134151                       # Total number of cycles that the CPU has spent unscheduled due to idling
system.switch_cpus0.iew.branchMispredicts      3350986                       # Number of branch mispredicts detected at execute
system.switch_cpus0.iew.exec_branches        44009232                       # Number of branches executed
system.switch_cpus0.iew.exec_nop                    0                       # number of nop insts executed
system.switch_cpus0.iew.exec_rate            2.789462                       # Inst execution rate
system.switch_cpus0.iew.exec_refs           118430584                       # number of memory reference insts executed
system.switch_cpus0.iew.exec_stores          36236427                       # Number of stores executed
system.switch_cpus0.iew.exec_swp                    0                       # number of swp insts executed
system.switch_cpus0.iew.iewBlockCycles       26293218                       # Number of cycles IEW is blocking
system.switch_cpus0.iew.iewDispLoadInsts     94550947                       # Number of dispatched load instructions
system.switch_cpus0.iew.iewDispNonSpecInsts            0                       # Number of dispatched non-speculative instructions
system.switch_cpus0.iew.iewDispSquashedInsts        84853                       # Number of squashed instructions skipped by dispatch
system.switch_cpus0.iew.iewDispStoreInsts     43404581                       # Number of dispatched store instructions
system.switch_cpus0.iew.iewDispatchedInsts    603728016                       # Number of instructions dispatched to IQ
system.switch_cpus0.iew.iewExecLoadInsts     82194157                       # Number of load instructions executed
system.switch_cpus0.iew.iewExecSquashedInsts      6770366                       # Number of squashed instructions skipped in execute
system.switch_cpus0.iew.iewExecutedInsts    512179193                       # Number of executed instructions
system.switch_cpus0.iew.iewIQFullEvents         46635                       # Number of times the IQ has become full, causing a stall
system.switch_cpus0.iew.iewIdleCycles               0                       # Number of cycles IEW is idle
system.switch_cpus0.iew.iewLSQFullEvents        50080                       # Number of times the LSQ has become full, causing a stall
system.switch_cpus0.iew.iewSquashCycles       3013970                       # Number of cycles IEW is squashing
system.switch_cpus0.iew.iewUnblockCycles       110776                       # Number of cycles IEW is unblocking
system.switch_cpus0.iew.memOrderViolationEvents       109695                       # Number of memory order violations
system.switch_cpus0.iew.predictedNotTakenIncorrect      1669453                       # Number of branches that were predicted not taken incorrectly
system.switch_cpus0.iew.predictedTakenIncorrect      1681533                       # Number of branches that were predicted taken incorrectly
system.switch_cpus0.iew.wb_consumers        664615680                       # num instructions consuming a value
system.switch_cpus0.iew.wb_count            509875992                       # cumulative count of insts written-back
system.switch_cpus0.iew.wb_fanout            0.583357                       # average fanout of values written-back
system.switch_cpus0.iew.wb_producers        387708265                       # num instructions producing a value
system.switch_cpus0.iew.wb_rate              2.776919                       # insts written-back per cycle
system.switch_cpus0.iew.wb_sent             511492369                       # cumulative count of insts sent to commit
system.switch_cpus0.int_regfile_reads       795817694                       # number of integer regfile reads
system.switch_cpus0.int_regfile_writes      434638359                       # number of integer regfile writes
system.switch_cpus0.ipc                      1.361566                       # IPC: Instructions Per Cycle
system.switch_cpus0.ipc_total                1.361566                       # IPC: Total IPC of All Threads
system.switch_cpus0.iq.FU_type_0::No_OpClass      1319289      0.25%      0.25% # Type of FU issued
system.switch_cpus0.iq.FU_type_0::IntAlu    392307142     75.60%     75.85% # Type of FU issued
system.switch_cpus0.iq.FU_type_0::IntMult      3433654      0.66%     76.51% # Type of FU issued
system.switch_cpus0.iq.FU_type_0::IntDiv       893786      0.17%     76.68% # Type of FU issued
system.switch_cpus0.iq.FU_type_0::FloatAdd            0      0.00%     76.68% # Type of FU issued
system.switch_cpus0.iq.FU_type_0::FloatCmp            0      0.00%     76.68% # Type of FU issued
system.switch_cpus0.iq.FU_type_0::FloatCvt            0      0.00%     76.68% # Type of FU issued
system.switch_cpus0.iq.FU_type_0::FloatMult            0      0.00%     76.68% # Type of FU issued
system.switch_cpus0.iq.FU_type_0::FloatMultAcc            0      0.00%     76.68% # Type of FU issued
system.switch_cpus0.iq.FU_type_0::FloatDiv            0      0.00%     76.68% # Type of FU issued
system.switch_cpus0.iq.FU_type_0::FloatMisc            0      0.00%     76.68% # Type of FU issued
system.switch_cpus0.iq.FU_type_0::FloatSqrt            0      0.00%     76.68% # Type of FU issued
system.switch_cpus0.iq.FU_type_0::SimdAdd            0      0.00%     76.68% # Type of FU issued
system.switch_cpus0.iq.FU_type_0::SimdAddAcc            0      0.00%     76.68% # Type of FU issued
system.switch_cpus0.iq.FU_type_0::SimdAlu            0      0.00%     76.68% # Type of FU issued
system.switch_cpus0.iq.FU_type_0::SimdCmp            0      0.00%     76.68% # Type of FU issued
system.switch_cpus0.iq.FU_type_0::SimdCvt            0      0.00%     76.68% # Type of FU issued
system.switch_cpus0.iq.FU_type_0::SimdMisc            0      0.00%     76.68% # Type of FU issued
system.switch_cpus0.iq.FU_type_0::SimdMult            0      0.00%     76.68% # Type of FU issued
system.switch_cpus0.iq.FU_type_0::SimdMultAcc            0      0.00%     76.68% # Type of FU issued
system.switch_cpus0.iq.FU_type_0::SimdShift            0      0.00%     76.68% # Type of FU issued
system.switch_cpus0.iq.FU_type_0::SimdShiftAcc            0      0.00%     76.68% # Type of FU issued
system.switch_cpus0.iq.FU_type_0::SimdDiv            0      0.00%     76.68% # Type of FU issued
system.switch_cpus0.iq.FU_type_0::SimdSqrt            0      0.00%     76.68% # Type of FU issued
system.switch_cpus0.iq.FU_type_0::SimdFloatAdd            0      0.00%     76.68% # Type of FU issued
system.switch_cpus0.iq.FU_type_0::SimdFloatAlu            0      0.00%     76.68% # Type of FU issued
system.switch_cpus0.iq.FU_type_0::SimdFloatCmp            0      0.00%     76.68% # Type of FU issued
system.switch_cpus0.iq.FU_type_0::SimdFloatCvt            0      0.00%     76.68% # Type of FU issued
system.switch_cpus0.iq.FU_type_0::SimdFloatDiv            0      0.00%     76.68% # Type of FU issued
system.switch_cpus0.iq.FU_type_0::SimdFloatMisc            0      0.00%     76.68% # Type of FU issued
system.switch_cpus0.iq.FU_type_0::SimdFloatMult            0      0.00%     76.68% # Type of FU issued
system.switch_cpus0.iq.FU_type_0::SimdFloatMultAcc            0      0.00%     76.68% # Type of FU issued
system.switch_cpus0.iq.FU_type_0::SimdFloatSqrt            0      0.00%     76.68% # Type of FU issued
system.switch_cpus0.iq.FU_type_0::SimdReduceAdd            0      0.00%     76.68% # Type of FU issued
system.switch_cpus0.iq.FU_type_0::SimdReduceAlu            0      0.00%     76.68% # Type of FU issued
system.switch_cpus0.iq.FU_type_0::SimdReduceCmp            0      0.00%     76.68% # Type of FU issued
system.switch_cpus0.iq.FU_type_0::SimdFloatReduceAdd            0      0.00%     76.68% # Type of FU issued
system.switch_cpus0.iq.FU_type_0::SimdFloatReduceCmp            0      0.00%     76.68% # Type of FU issued
system.switch_cpus0.iq.FU_type_0::SimdAes            0      0.00%     76.68% # Type of FU issued
system.switch_cpus0.iq.FU_type_0::SimdAesMix            0      0.00%     76.68% # Type of FU issued
system.switch_cpus0.iq.FU_type_0::SimdSha1Hash            0      0.00%     76.68% # Type of FU issued
system.switch_cpus0.iq.FU_type_0::SimdSha1Hash2            0      0.00%     76.68% # Type of FU issued
system.switch_cpus0.iq.FU_type_0::SimdSha256Hash            0      0.00%     76.68% # Type of FU issued
system.switch_cpus0.iq.FU_type_0::SimdSha256Hash2            0      0.00%     76.68% # Type of FU issued
system.switch_cpus0.iq.FU_type_0::SimdShaSigma2            0      0.00%     76.68% # Type of FU issued
system.switch_cpus0.iq.FU_type_0::SimdShaSigma3            0      0.00%     76.68% # Type of FU issued
system.switch_cpus0.iq.FU_type_0::SimdPredAlu            0      0.00%     76.68% # Type of FU issued
system.switch_cpus0.iq.FU_type_0::MemRead     83703520     16.13%     92.81% # Type of FU issued
system.switch_cpus0.iq.FU_type_0::MemWrite     36831301      7.10%     99.91% # Type of FU issued
system.switch_cpus0.iq.FU_type_0::FloatMemRead       230484      0.04%     99.96% # Type of FU issued
system.switch_cpus0.iq.FU_type_0::FloatMemWrite       230387      0.04%    100.00% # Type of FU issued
system.switch_cpus0.iq.FU_type_0::IprAccess            0      0.00%    100.00% # Type of FU issued
system.switch_cpus0.iq.FU_type_0::InstPrefetch            0      0.00%    100.00% # Type of FU issued
system.switch_cpus0.iq.FU_type_0::total     518949563                       # Type of FU issued
system.switch_cpus0.iq.fp_alu_accesses         460871                       # Number of floating point alu accesses
system.switch_cpus0.iq.fp_inst_queue_reads       921742                       # Number of floating instruction queue reads
system.switch_cpus0.iq.fp_inst_queue_wakeup_accesses       460751                       # Number of floating instruction queue wakeup accesses
system.switch_cpus0.iq.fp_inst_queue_writes       820996                       # Number of floating instruction queue writes
system.switch_cpus0.iq.fu_busy_cnt           10924664                       # FU busy when requested
system.switch_cpus0.iq.fu_busy_rate          0.021051                       # FU busy rate (busy events/executed inst)
system.switch_cpus0.iq.fu_full::No_OpClass            0      0.00%      0.00% # attempts to use FU when none available
system.switch_cpus0.iq.fu_full::IntAlu        7546830     69.08%     69.08% # attempts to use FU when none available
system.switch_cpus0.iq.fu_full::IntMult             0      0.00%     69.08% # attempts to use FU when none available
system.switch_cpus0.iq.fu_full::IntDiv              0      0.00%     69.08% # attempts to use FU when none available
system.switch_cpus0.iq.fu_full::FloatAdd            0      0.00%     69.08% # attempts to use FU when none available
system.switch_cpus0.iq.fu_full::FloatCmp            0      0.00%     69.08% # attempts to use FU when none available
system.switch_cpus0.iq.fu_full::FloatCvt            0      0.00%     69.08% # attempts to use FU when none available
system.switch_cpus0.iq.fu_full::FloatMult            0      0.00%     69.08% # attempts to use FU when none available
system.switch_cpus0.iq.fu_full::FloatMultAcc            0      0.00%     69.08% # attempts to use FU when none available
system.switch_cpus0.iq.fu_full::FloatDiv            0      0.00%     69.08% # attempts to use FU when none available
system.switch_cpus0.iq.fu_full::FloatMisc            0      0.00%     69.08% # attempts to use FU when none available
system.switch_cpus0.iq.fu_full::FloatSqrt            0      0.00%     69.08% # attempts to use FU when none available
system.switch_cpus0.iq.fu_full::SimdAdd             0      0.00%     69.08% # attempts to use FU when none available
system.switch_cpus0.iq.fu_full::SimdAddAcc            0      0.00%     69.08% # attempts to use FU when none available
system.switch_cpus0.iq.fu_full::SimdAlu             0      0.00%     69.08% # attempts to use FU when none available
system.switch_cpus0.iq.fu_full::SimdCmp             0      0.00%     69.08% # attempts to use FU when none available
system.switch_cpus0.iq.fu_full::SimdCvt             0      0.00%     69.08% # attempts to use FU when none available
system.switch_cpus0.iq.fu_full::SimdMisc            0      0.00%     69.08% # attempts to use FU when none available
system.switch_cpus0.iq.fu_full::SimdMult            0      0.00%     69.08% # attempts to use FU when none available
system.switch_cpus0.iq.fu_full::SimdMultAcc            0      0.00%     69.08% # attempts to use FU when none available
system.switch_cpus0.iq.fu_full::SimdShift            0      0.00%     69.08% # attempts to use FU when none available
system.switch_cpus0.iq.fu_full::SimdShiftAcc            0      0.00%     69.08% # attempts to use FU when none available
system.switch_cpus0.iq.fu_full::SimdDiv             0      0.00%     69.08% # attempts to use FU when none available
system.switch_cpus0.iq.fu_full::SimdSqrt            0      0.00%     69.08% # attempts to use FU when none available
system.switch_cpus0.iq.fu_full::SimdFloatAdd            0      0.00%     69.08% # attempts to use FU when none available
system.switch_cpus0.iq.fu_full::SimdFloatAlu            0      0.00%     69.08% # attempts to use FU when none available
system.switch_cpus0.iq.fu_full::SimdFloatCmp            0      0.00%     69.08% # attempts to use FU when none available
system.switch_cpus0.iq.fu_full::SimdFloatCvt            0      0.00%     69.08% # attempts to use FU when none available
system.switch_cpus0.iq.fu_full::SimdFloatDiv            0      0.00%     69.08% # attempts to use FU when none available
system.switch_cpus0.iq.fu_full::SimdFloatMisc            0      0.00%     69.08% # attempts to use FU when none available
system.switch_cpus0.iq.fu_full::SimdFloatMult            0      0.00%     69.08% # attempts to use FU when none available
system.switch_cpus0.iq.fu_full::SimdFloatMultAcc            0      0.00%     69.08% # attempts to use FU when none available
system.switch_cpus0.iq.fu_full::SimdFloatSqrt            0      0.00%     69.08% # attempts to use FU when none available
system.switch_cpus0.iq.fu_full::SimdReduceAdd            0      0.00%     69.08% # attempts to use FU when none available
system.switch_cpus0.iq.fu_full::SimdReduceAlu            0      0.00%     69.08% # attempts to use FU when none available
system.switch_cpus0.iq.fu_full::SimdReduceCmp            0      0.00%     69.08% # attempts to use FU when none available
system.switch_cpus0.iq.fu_full::SimdFloatReduceAdd            0      0.00%     69.08% # attempts to use FU when none available
system.switch_cpus0.iq.fu_full::SimdFloatReduceCmp            0      0.00%     69.08% # attempts to use FU when none available
system.switch_cpus0.iq.fu_full::SimdAes             0      0.00%     69.08% # attempts to use FU when none available
system.switch_cpus0.iq.fu_full::SimdAesMix            0      0.00%     69.08% # attempts to use FU when none available
system.switch_cpus0.iq.fu_full::SimdSha1Hash            0      0.00%     69.08% # attempts to use FU when none available
system.switch_cpus0.iq.fu_full::SimdSha1Hash2            0      0.00%     69.08% # attempts to use FU when none available
system.switch_cpus0.iq.fu_full::SimdSha256Hash            0      0.00%     69.08% # attempts to use FU when none available
system.switch_cpus0.iq.fu_full::SimdSha256Hash2            0      0.00%     69.08% # attempts to use FU when none available
system.switch_cpus0.iq.fu_full::SimdShaSigma2            0      0.00%     69.08% # attempts to use FU when none available
system.switch_cpus0.iq.fu_full::SimdShaSigma3            0      0.00%     69.08% # attempts to use FU when none available
system.switch_cpus0.iq.fu_full::SimdPredAlu            0      0.00%     69.08% # attempts to use FU when none available
system.switch_cpus0.iq.fu_full::MemRead       2430848     22.25%     91.33% # attempts to use FU when none available
system.switch_cpus0.iq.fu_full::MemWrite       946986      8.67%    100.00% # attempts to use FU when none available
system.switch_cpus0.iq.fu_full::FloatMemRead            0      0.00%    100.00% # attempts to use FU when none available
system.switch_cpus0.iq.fu_full::FloatMemWrite            0      0.00%    100.00% # attempts to use FU when none available
system.switch_cpus0.iq.fu_full::IprAccess            0      0.00%    100.00% # attempts to use FU when none available
system.switch_cpus0.iq.fu_full::InstPrefetch            0      0.00%    100.00% # attempts to use FU when none available
system.switch_cpus0.iq.int_alu_accesses     528094067                       # Number of integer alu accesses
system.switch_cpus0.iq.int_inst_queue_reads   1232782568                       # Number of integer instruction queue reads
system.switch_cpus0.iq.int_inst_queue_wakeup_accesses    509415241                       # Number of integer instruction queue wakeup accesses
system.switch_cpus0.iq.int_inst_queue_writes    802603330                       # Number of integer instruction queue writes
system.switch_cpus0.iq.iqInstsAdded         603728016                       # Number of instructions added to the IQ (excludes non-spec)
system.switch_cpus0.iq.iqInstsIssued        518949563                       # Number of instructions issued
system.switch_cpus0.iq.iqSquashedInstsExamined    199591059                       # Number of squashed instructions iterated over during squash; mainly for profiling
system.switch_cpus0.iq.iqSquashedInstsIssued      1402525                       # Number of squashed instructions issued
system.switch_cpus0.iq.iqSquashedOperandsExamined    306531784                       # Number of squashed operands that are examined and possibly removed from graph
system.switch_cpus0.iq.issued_per_cycle::samples    183477999                       # Number of insts issued each cycle
system.switch_cpus0.iq.issued_per_cycle::mean     2.828402                       # Number of insts issued each cycle
system.switch_cpus0.iq.issued_per_cycle::stdev     2.556905                       # Number of insts issued each cycle
system.switch_cpus0.iq.issued_per_cycle::underflows            0      0.00%      0.00% # Number of insts issued each cycle
system.switch_cpus0.iq.issued_per_cycle::0     55630751     30.32%     30.32% # Number of insts issued each cycle
system.switch_cpus0.iq.issued_per_cycle::1     16011798      8.73%     39.05% # Number of insts issued each cycle
system.switch_cpus0.iq.issued_per_cycle::2     19953483     10.88%     49.92% # Number of insts issued each cycle
system.switch_cpus0.iq.issued_per_cycle::3     20313570     11.07%     60.99% # Number of insts issued each cycle
system.switch_cpus0.iq.issued_per_cycle::4     19494136     10.62%     71.62% # Number of insts issued each cycle
system.switch_cpus0.iq.issued_per_cycle::5     16537521      9.01%     80.63% # Number of insts issued each cycle
system.switch_cpus0.iq.issued_per_cycle::6     16005200      8.72%     89.35% # Number of insts issued each cycle
system.switch_cpus0.iq.issued_per_cycle::7     10857580      5.92%     95.27% # Number of insts issued each cycle
system.switch_cpus0.iq.issued_per_cycle::8      8673960      4.73%    100.00% # Number of insts issued each cycle
system.switch_cpus0.iq.issued_per_cycle::overflows            0      0.00%    100.00% # Number of insts issued each cycle
system.switch_cpus0.iq.issued_per_cycle::min_value            0                       # Number of insts issued each cycle
system.switch_cpus0.iq.issued_per_cycle::max_value            8                       # Number of insts issued each cycle
system.switch_cpus0.iq.issued_per_cycle::total    183477999                       # Number of insts issued each cycle
system.switch_cpus0.iq.rate                  2.826336                       # Inst issue rate
system.switch_cpus0.iq.vec_alu_accesses             0                       # Number of vector alu accesses
system.switch_cpus0.iq.vec_inst_queue_reads            0                       # Number of vector instruction queue reads
system.switch_cpus0.iq.vec_inst_queue_wakeup_accesses            0                       # Number of vector instruction queue wakeup accesses
system.switch_cpus0.iq.vec_inst_queue_writes            0                       # Number of vector instruction queue writes
system.switch_cpus0.memDep0.conflictingLoads     14956497                       # Number of conflicting loads.
system.switch_cpus0.memDep0.conflictingStores      6599114                       # Number of conflicting stores.
system.switch_cpus0.memDep0.insertedLoads     94550947                       # Number of loads inserted to the mem dependence unit.
system.switch_cpus0.memDep0.insertedStores     43404581                       # Number of stores inserted to the mem dependence unit.
system.switch_cpus0.misc_regfile_reads      222523159                       # number of misc regfile reads
system.switch_cpus0.misc_regfile_writes             1                       # number of misc regfile writes
system.switch_cpus0.numCycles               183612150                       # number of cpu cycles simulated
system.switch_cpus0.numWorkItemsCompleted            0                       # number of work items this cpu completed
system.switch_cpus0.numWorkItemsStarted             0                       # number of work items this cpu started
system.switch_cpus0.timesIdled                   3448                       # Number of times that the entire CPU went into an idle state and unscheduled itself
system.switch_cpus1.cc_regfile_reads        223620436                       # number of cc regfile reads
system.switch_cpus1.cc_regfile_writes       199559342                       # number of cc regfile writes
system.switch_cpus1.committedInsts          249999938                       # Number of Instructions Simulated
system.switch_cpus1.committedOps            404136764                       # Number of Ops (including micro ops) Simulated
system.switch_cpus1.cpi                      0.734449                       # CPI: Cycles Per Instruction
system.switch_cpus1.cpi_total                0.734449                       # CPI: Total CPI of All Threads
system.switch_cpus1.fp_regfile_reads           230372                       # number of floating regfile reads
system.switch_cpus1.fp_regfile_writes          230478                       # number of floating regfile writes
system.switch_cpus1.idleCycles                 134777                       # Total number of cycles that the CPU has spent unscheduled due to idling
system.switch_cpus1.iew.branchMispredicts      3351063                       # Number of branch mispredicts detected at execute
system.switch_cpus1.iew.exec_branches        44016730                       # Number of branches executed
system.switch_cpus1.iew.exec_nop                    0                       # number of nop insts executed
system.switch_cpus1.iew.exec_rate            2.789731                       # Inst execution rate
system.switch_cpus1.iew.exec_refs           118450523                       # number of memory reference insts executed
system.switch_cpus1.iew.exec_stores          36238655                       # Number of stores executed
system.switch_cpus1.iew.exec_swp                    0                       # number of swp insts executed
system.switch_cpus1.iew.iewBlockCycles       26312751                       # Number of cycles IEW is blocking
system.switch_cpus1.iew.iewDispLoadInsts     94563634                       # Number of dispatched load instructions
system.switch_cpus1.iew.iewDispNonSpecInsts            0                       # Number of dispatched non-speculative instructions
system.switch_cpus1.iew.iewDispSquashedInsts        84988                       # Number of squashed instructions skipped by dispatch
system.switch_cpus1.iew.iewDispStoreInsts     43412813                       # Number of dispatched store instructions
system.switch_cpus1.iew.iewDispatchedInsts    603806255                       # Number of instructions dispatched to IQ
system.switch_cpus1.iew.iewExecLoadInsts     82211868                       # Number of load instructions executed
system.switch_cpus1.iew.iewExecSquashedInsts      6771048                       # Number of squashed instructions skipped in execute
system.switch_cpus1.iew.iewExecutedInsts    512228428                       # Number of executed instructions
system.switch_cpus1.iew.iewIQFullEvents         46668                       # Number of times the IQ has become full, causing a stall
system.switch_cpus1.iew.iewIdleCycles               0                       # Number of cycles IEW is idle
system.switch_cpus1.iew.iewLSQFullEvents        49723                       # Number of times the LSQ has become full, causing a stall
system.switch_cpus1.iew.iewSquashCycles       3014695                       # Number of cycles IEW is squashing
system.switch_cpus1.iew.iewUnblockCycles       110444                       # Number of cycles IEW is unblocking
system.switch_cpus1.iew.memOrderViolationEvents       110401                       # Number of memory order violations
system.switch_cpus1.iew.predictedNotTakenIncorrect      1669447                       # Number of branches that were predicted not taken incorrectly
system.switch_cpus1.iew.predictedTakenIncorrect      1681616                       # Number of branches that were predicted taken incorrectly
system.switch_cpus1.iew.wb_consumers        664636803                       # num instructions consuming a value
system.switch_cpus1.iew.wb_count            509922164                       # cumulative count of insts written-back
system.switch_cpus1.iew.wb_fanout            0.583382                       # average fanout of values written-back
system.switch_cpus1.iew.wb_producers        387737082                       # num instructions producing a value
system.switch_cpus1.iew.wb_rate              2.777170                       # insts written-back per cycle
system.switch_cpus1.iew.wb_sent             511540829                       # cumulative count of insts sent to commit
system.switch_cpus1.int_regfile_reads       795882677                       # number of integer regfile reads
system.switch_cpus1.int_regfile_writes      434676788                       # number of integer regfile writes
system.switch_cpus1.ipc                      1.361565                       # IPC: Instructions Per Cycle
system.switch_cpus1.ipc_total                1.361565                       # IPC: Total IPC of All Threads
system.switch_cpus1.iq.FU_type_0::No_OpClass      1319413      0.25%      0.25% # Type of FU issued
system.switch_cpus1.iq.FU_type_0::IntAlu    392337081     75.59%     75.85% # Type of FU issued
system.switch_cpus1.iq.FU_type_0::IntMult      3433603      0.66%     76.51% # Type of FU issued
system.switch_cpus1.iq.FU_type_0::IntDiv       893760      0.17%     76.68% # Type of FU issued
system.switch_cpus1.iq.FU_type_0::FloatAdd            0      0.00%     76.68% # Type of FU issued
system.switch_cpus1.iq.FU_type_0::FloatCmp            0      0.00%     76.68% # Type of FU issued
system.switch_cpus1.iq.FU_type_0::FloatCvt            0      0.00%     76.68% # Type of FU issued
system.switch_cpus1.iq.FU_type_0::FloatMult            0      0.00%     76.68% # Type of FU issued
system.switch_cpus1.iq.FU_type_0::FloatMultAcc            0      0.00%     76.68% # Type of FU issued
system.switch_cpus1.iq.FU_type_0::FloatDiv            0      0.00%     76.68% # Type of FU issued
system.switch_cpus1.iq.FU_type_0::FloatMisc            0      0.00%     76.68% # Type of FU issued
system.switch_cpus1.iq.FU_type_0::FloatSqrt            0      0.00%     76.68% # Type of FU issued
system.switch_cpus1.iq.FU_type_0::SimdAdd            0      0.00%     76.68% # Type of FU issued
system.switch_cpus1.iq.FU_type_0::SimdAddAcc            0      0.00%     76.68% # Type of FU issued
system.switch_cpus1.iq.FU_type_0::SimdAlu            0      0.00%     76.68% # Type of FU issued
system.switch_cpus1.iq.FU_type_0::SimdCmp            0      0.00%     76.68% # Type of FU issued
system.switch_cpus1.iq.FU_type_0::SimdCvt            0      0.00%     76.68% # Type of FU issued
system.switch_cpus1.iq.FU_type_0::SimdMisc            0      0.00%     76.68% # Type of FU issued
system.switch_cpus1.iq.FU_type_0::SimdMult            0      0.00%     76.68% # Type of FU issued
system.switch_cpus1.iq.FU_type_0::SimdMultAcc            0      0.00%     76.68% # Type of FU issued
system.switch_cpus1.iq.FU_type_0::SimdShift            0      0.00%     76.68% # Type of FU issued
system.switch_cpus1.iq.FU_type_0::SimdShiftAcc            0      0.00%     76.68% # Type of FU issued
system.switch_cpus1.iq.FU_type_0::SimdDiv            0      0.00%     76.68% # Type of FU issued
system.switch_cpus1.iq.FU_type_0::SimdSqrt            0      0.00%     76.68% # Type of FU issued
system.switch_cpus1.iq.FU_type_0::SimdFloatAdd            0      0.00%     76.68% # Type of FU issued
system.switch_cpus1.iq.FU_type_0::SimdFloatAlu            0      0.00%     76.68% # Type of FU issued
system.switch_cpus1.iq.FU_type_0::SimdFloatCmp            0      0.00%     76.68% # Type of FU issued
system.switch_cpus1.iq.FU_type_0::SimdFloatCvt            0      0.00%     76.68% # Type of FU issued
system.switch_cpus1.iq.FU_type_0::SimdFloatDiv            0      0.00%     76.68% # Type of FU issued
system.switch_cpus1.iq.FU_type_0::SimdFloatMisc            0      0.00%     76.68% # Type of FU issued
system.switch_cpus1.iq.FU_type_0::SimdFloatMult            0      0.00%     76.68% # Type of FU issued
system.switch_cpus1.iq.FU_type_0::SimdFloatMultAcc            0      0.00%     76.68% # Type of FU issued
system.switch_cpus1.iq.FU_type_0::SimdFloatSqrt            0      0.00%     76.68% # Type of FU issued
system.switch_cpus1.iq.FU_type_0::SimdReduceAdd            0      0.00%     76.68% # Type of FU issued
system.switch_cpus1.iq.FU_type_0::SimdReduceAlu            0      0.00%     76.68% # Type of FU issued
system.switch_cpus1.iq.FU_type_0::SimdReduceCmp            0      0.00%     76.68% # Type of FU issued
system.switch_cpus1.iq.FU_type_0::SimdFloatReduceAdd            0      0.00%     76.68% # Type of FU issued
system.switch_cpus1.iq.FU_type_0::SimdFloatReduceCmp            0      0.00%     76.68% # Type of FU issued
system.switch_cpus1.iq.FU_type_0::SimdAes            0      0.00%     76.68% # Type of FU issued
system.switch_cpus1.iq.FU_type_0::SimdAesMix            0      0.00%     76.68% # Type of FU issued
system.switch_cpus1.iq.FU_type_0::SimdSha1Hash            0      0.00%     76.68% # Type of FU issued
[...]
system.switch_cpus3.commit.numCommittedDist::1     32278364     20.60%     50.99% # Number of insts commited each cycle
system.switch_cpus3.commit.numCommittedDist::2     17355057     11.08%     62.07% # Number of insts commited each cycle
system.switch_cpus3.commit.numCommittedDist::3     16214657     10.35%     72.42% # Number of insts commited each cycle
system.switch_cpus3.commit.numCommittedDist::4      8753279      5.59%     78.00% # Number of insts commited each cycle
system.switch_cpus3.commit.numCommittedDist::5      4363306      2.78%     80.79% # Number of insts commited each cycle
system.switch_cpus3.commit.numCommittedDist::6      3361179      2.15%     82.93% # Number of insts commited each cycle
system.switch_cpus3.commit.numCommittedDist::7      2534721      1.62%     84.55% # Number of insts commited each cycle
system.switch_cpus3.commit.numCommittedDist::8     24205526     15.45%    100.00% # Number of insts commited each cycle
system.switch_cpus3.commit.numCommittedDist::overflows            0      0.00%    100.00% # Number of insts commited each cycle
system.switch_cpus3.commit.numCommittedDist::min_value            0                       # Number of insts commited each cycle
system.switch_cpus3.commit.numCommittedDist::max_value            8                       # Number of insts commited each cycle
system.switch_cpus3.commit.numCommittedDist::total    156674098                       # Number of insts commited each cycle
system.switch_cpus3.commit.instsCommitted    249925861                       # Number of instructions committed
system.switch_cpus3.commit.opsCommitted     404016424                       # Number of ops (including micro ops) committed
system.switch_cpus3.commit.memRefs           93105146                       # Number of memory references committed
system.switch_cpus3.commit.loads             63232784                       # Number of loads committed
system.switch_cpus3.commit.amos                     0                       # Number of atomic instructions committed
system.switch_cpus3.commit.membars                  0                       # Number of memory barriers committed
system.switch_cpus3.commit.branches          36127816                       # Number of branches committed
system.switch_cpus3.commit.vector                   0                       # Number of committed Vector instructions.
system.switch_cpus3.commit.floating            458936                       # Number of committed floating point instructions.
system.switch_cpus3.commit.integer          402632380                       # Number of committed integer instructions.
system.switch_cpus3.commit.functionCalls      4795047                       # Number of function calls committed.
system.switch_cpus3.commit.committedInstType_0::No_OpClass       946121      0.23%      0.23% # Class of committed instruction
system.switch_cpus3.commit.committedInstType_0::IntAlu    305778001     75.68%     75.92% # Class of committed instruction
system.switch_cpus3.commit.committedInstType_0::IntMult      3317278      0.82%     76.74% # Class of committed instruction
system.switch_cpus3.commit.committedInstType_0::IntDiv       869878      0.22%     76.96% # Class of committed instruction
system.switch_cpus3.commit.committedInstType_0::FloatAdd            0      0.00%     76.96% # Class of committed instruction
system.switch_cpus3.commit.committedInstType_0::FloatCmp            0      0.00%     76.96% # Class of committed instruction
system.switch_cpus3.commit.committedInstType_0::FloatCvt            0      0.00%     76.96% # Class of committed instruction
system.switch_cpus3.commit.committedInstType_0::FloatMult            0      0.00%     76.96% # Class of committed instruction
system.switch_cpus3.commit.committedInstType_0::FloatMultAcc            0      0.00%     76.96% # Class of committed instruction
system.switch_cpus3.commit.committedInstType_0::FloatDiv            0      0.00%     76.96% # Class of committed instruction
system.switch_cpus3.commit.committedInstType_0::FloatMisc            0      0.00%     76.96% # Class of committed instruction
system.switch_cpus3.commit.committedInstType_0::FloatSqrt            0      0.00%     76.96% # Class of committed instruction
system.switch_cpus3.commit.committedInstType_0::SimdAdd            0      0.00%     76.96% # Class of committed instruction
system.switch_cpus3.commit.committedInstType_0::SimdAddAcc            0      0.00%     76.96% # Class of committed instruction
system.switch_cpus3.commit.committedInstType_0::SimdAlu            0      0.00%     76.96% # Class of committed instruction
system.switch_cpus3.commit.committedInstType_0::SimdCmp            0      0.00%     76.96% # Class of committed instruction
system.switch_cpus3.commit.committedInstType_0::SimdCvt            0      0.00%     76.96% # Class of committed instruction
system.switch_cpus3.commit.committedInstType_0::SimdMisc            0      0.00%     76.96% # Class of committed instruction
system.switch_cpus3.commit.committedInstType_0::SimdMult            0      0.00%     76.96% # Class of committed instruction
system.switch_cpus3.commit.committedInstType_0::SimdMultAcc            0      0.00%     76.96% # Class of committed instruction
system.switch_cpus3.commit.committedInstType_0::SimdShift            0      0.00%     76.96% # Class of committed instruction
system.switch_cpus3.commit.committedInstType_0::SimdShiftAcc            0      0.00%     76.96% # Class of committed instruction
system.switch_cpus3.commit.committedInstType_0::SimdDiv            0      0.00%     76.96% # Class of committed instruction
system.switch_cpus3.commit.committedInstType_0::SimdSqrt            0      0.00%     76.96% # Class of committed instruction
system.switch_cpus3.commit.committedInstType_0::SimdFloatAdd            0      0.00%     76.96% # Class of committed instruction
system.switch_cpus3.commit.committedInstType_0::SimdFloatAlu            0      0.00%     76.96% # Class of committed instruction
system.switch_cpus3.commit.committedInstType_0::SimdFloatCmp            0      0.00%     76.96% # Class of committed instruction
system.switch_cpus3.commit.committedInstType_0::SimdFloatCvt            0      0.00%     76.96% # Class of committed instruction
system.switch_cpus3.commit.committedInstType_0::SimdFloatDiv            0      0.00%     76.96% # Class of committed instruction
system.switch_cpus3.commit.committedInstType_0::SimdFloatMisc            0      0.00%     76.96% # Class of committed instruction
system.switch_cpus3.commit.committedInstType_0::SimdFloatMult            0      0.00%     76.96% # Class of committed instruction
system.switch_cpus3.commit.committedInstType_0::SimdFloatMultAcc            0      0.00%     76.96% # Class of committed instruction
system.switch_cpus3.commit.committedInstType_0::SimdFloatSqrt            0      0.00%     76.96% # Class of committed instruction
system.switch_cpus3.commit.committedInstType_0::SimdReduceAdd            0      0.00%     76.96% # Class of committed instruction
system.switch_cpus3.commit.committedInstType_0::SimdReduceAlu            0      0.00%     76.96% # Class of committed instruction
system.switch_cpus3.commit.committedInstType_0::SimdReduceCmp            0      0.00%     76.96% # Class of committed instruction
system.switch_cpus3.commit.committedInstType_0::SimdFloatReduceAdd            0      0.00%     76.96% # Class of committed instruction
system.switch_cpus3.commit.committedInstType_0::SimdFloatReduceCmp            0      0.00%     76.96% # Class of committed instruction
system.switch_cpus3.commit.committedInstType_0::SimdAes            0      0.00%     76.96% # Class of committed instruction
system.switch_cpus3.commit.committedInstType_0::SimdAesMix            0      0.00%     76.96% # Class of committed instruction
system.switch_cpus3.commit.committedInstType_0::SimdSha1Hash            0      0.00%     76.96% # Class of committed instruction
system.switch_cpus3.commit.committedInstType_0::SimdSha1Hash2            0      0.00%     76.96% # Class of committed instruction
system.switch_cpus3.commit.committedInstType_0::SimdSha256Hash            0      0.00%     76.96% # Class of committed instruction
system.switch_cpus3.commit.committedInstType_0::SimdSha256Hash2            0      0.00%     76.96% # Class of committed instruction
system.switch_cpus3.commit.committedInstType_0::SimdShaSigma2            0      0.00%     76.96% # Class of committed instruction
system.switch_cpus3.commit.committedInstType_0::SimdShaSigma3            0      0.00%     76.96% # Class of committed instruction
system.switch_cpus3.commit.committedInstType_0::SimdPredAlu            0      0.00%     76.96% # Class of committed instruction
system.switch_cpus3.commit.committedInstType_0::MemRead     63003316     15.59%     92.55% # Class of committed instruction
system.switch_cpus3.commit.committedInstType_0::MemWrite     29642894      7.34%     99.89% # Class of committed instruction
system.switch_cpus3.commit.committedInstType_0::FloatMemRead       229468      0.06%     99.94% # Class of committed instruction
system.switch_cpus3.commit.committedInstType_0::FloatMemWrite       229468      0.06%    100.00% # Class of committed instruction
system.switch_cpus3.commit.committedInstType_0::IprAccess            0      0.00%    100.00% # Class of committed instruction
system.switch_cpus3.commit.committedInstType_0::InstPrefetch            0      0.00%    100.00% # Class of committed instruction
system.switch_cpus3.commit.committedInstType_0::total    404016424                       # Class of committed instruction
system.switch_cpus3.commit.commitEligibleSamples     24205526                       # number cycles where commit BW limit reached
system.switch_cpus3.decode.idleCycles        17775100                       # Number of cycles decode is idle
system.switch_cpus3.decode.blockedCycles     72108913                       # Number of cycles decode is blocked
system.switch_cpus3.decode.runCycles         68500842                       # Number of cycles decode is running
system.switch_cpus3.decode.unblockCycles     22078328                       # Number of cycles decode is unblocking
system.switch_cpus3.decode.squashCycles       3013903                       # Number of cycles decode is squashing
system.switch_cpus3.decode.branchResolved     30460520                       # Number of times decode resolved a  branch
system.switch_cpus3.decode.branchMispred       254221                       # Number of times decode detected a branch misprediction
system.switch_cpus3.decode.decodedInsts     651731771                       # Number of instructions handled by decode
system.switch_cpus3.decode.squashedInsts      1163609                       # Number of squashed instructions handled by decode
system.switch_cpus3.dtb.rdAccesses           82183123                       # TLB accesses on read requests
system.switch_cpus3.dtb.wrAccesses           36228736                       # TLB accesses on write requests
system.switch_cpus3.dtb.rdMisses                57692                       # TLB misses on read requests
system.switch_cpus3.dtb.wrMisses                 1468                       # TLB misses on write requests
system.switch_cpus3.dtb.walker.power_state.pwrStateResidencyTicks::UNDEFINED 16607525489694                       # Cumulative time (in ticks) in various power states
system.switch_cpus3.fetch.icacheStallCycles      5121988                       # Number of cycles fetch is stalled on an Icache miss
system.switch_cpus3.fetch.insts             443652350                       # Number of instructions fetch has processed
system.switch_cpus3.fetch.branches           65102625                       # Number of branches that fetch encountered
system.switch_cpus3.fetch.predictedBranches     41407553                       # Number of branches that fetch has predicted taken
system.switch_cpus3.fetch.cycles            175092550                       # Number of cycles fetch has run and was not squashing or blocked
system.switch_cpus3.fetch.squashCycles        6524776                       # Number of cycles fetch has spent squashing
system.switch_cpus3.fetch.miscStallCycles           23                       # Number of cycles fetch has spent waiting on interrupts,or bad addresses, or out of MSHRs
system.switch_cpus3.fetch.pendingTrapStallCycles          140                       # Number of stall cycles due to pending traps
system.switch_cpus3.fetch.cacheLines         66235111                       # Number of cache lines fetched
system.switch_cpus3.fetch.icacheSquashes        68300                       # Number of outstanding Icache misses that were squashed
system.switch_cpus3.fetch.nisnDist::samples    183477089                       # Number of instructions fetched each cycle (Total)
system.switch_cpus3.fetch.nisnDist::mean     3.899703                       # Number of instructions fetched each cycle (Total)
system.switch_cpus3.fetch.nisnDist::stdev     3.361234                       # Number of instructions fetched each cycle (Total)
system.switch_cpus3.fetch.nisnDist::underflows            0      0.00%      0.00% # Number of instructions fetched each cycle (Total)
system.switch_cpus3.fetch.nisnDist::0        60029871     32.72%     32.72% # Number of instructions fetched each cycle (Total)
system.switch_cpus3.fetch.nisnDist::1         9083096      4.95%     37.67% # Number of instructions fetched each cycle (Total)
system.switch_cpus3.fetch.nisnDist::2         8907526      4.85%     42.52% # Number of instructions fetched each cycle (Total)
system.switch_cpus3.fetch.nisnDist::3         8276122      4.51%     47.03% # Number of instructions fetched each cycle (Total)
system.switch_cpus3.fetch.nisnDist::4         9159049      4.99%     52.03% # Number of instructions fetched each cycle (Total)
system.switch_cpus3.fetch.nisnDist::5        16618087      9.06%     61.08% # Number of instructions fetched each cycle (Total)
system.switch_cpus3.fetch.nisnDist::6         9881451      5.39%     66.47% # Number of instructions fetched each cycle (Total)
system.switch_cpus3.fetch.nisnDist::7         7410797      4.04%     70.51% # Number of instructions fetched each cycle (Total)
system.switch_cpus3.fetch.nisnDist::8        54111090     29.49%    100.00% # Number of instructions fetched each cycle (Total)
system.switch_cpus3.fetch.nisnDist::overflows            0      0.00%    100.00% # Number of instructions fetched each cycle (Total)
system.switch_cpus3.fetch.nisnDist::min_value            0                       # Number of instructions fetched each cycle (Total)
system.switch_cpus3.fetch.nisnDist::max_value            8                       # Number of instructions fetched each cycle (Total)
system.switch_cpus3.fetch.nisnDist::total    183477089                       # Number of instructions fetched each cycle (Total)
system.switch_cpus3.fetch.branchRate         0.354566                       # Number of branch fetches per cycle
system.switch_cpus3.fetch.rate               2.416247                       # Number of inst fetches per cycle
system.switch_cpus3.itb.rdAccesses                  0                       # TLB accesses on read requests
system.switch_cpus3.itb.wrAccesses           66235134                       # TLB accesses on write requests
system.switch_cpus3.itb.rdMisses                    0                       # TLB misses on read requests
system.switch_cpus3.itb.wrMisses                   49                       # TLB misses on write requests
system.switch_cpus3.itb.walker.power_state.pwrStateResidencyTicks::UNDEFINED 16607525489694                       # Cumulative time (in ticks) in various power states
system.switch_cpus3.lsq0.forwLoads           13320464                       # Number of loads that had data forwarded from stores
system.switch_cpus3.lsq0.squashedLoads       31300020                       # Number of loads squashed
system.switch_cpus3.lsq0.ignoredResponses        50724                       # Number of memory responses ignored because the instruction is squashed
system.switch_cpus3.lsq0.memOrderViolation       110424                       # Number of memory ordering violations
system.switch_cpus3.lsq0.squashedStores      13524927                       # Number of stores squashed
system.switch_cpus3.lsq0.rescheduledLoads         3985                       # Number of loads that were rescheduled
system.switch_cpus3.lsq0.blockedByCache             0                       # Number of times an access to memory failed due to the cache being blocked
system.switch_cpus3.power_state.pwrStateResidencyTicks::OFF  61142856273                       # Cumulative time (in ticks) in various power states
system.switch_cpus3.rename.squashCycles       3013903                       # Number of cycles rename is squashing
system.switch_cpus3.rename.idleCycles        26821785                       # Number of cycles rename is idle
system.switch_cpus3.rename.blockCycles       40291159                       # Number of cycles rename is blocking
system.switch_cpus3.rename.serializeStallCycles            0                       # count of cycles rename stalledfor serializing inst
system.switch_cpus3.rename.runCycles         81107957                       # Number of cycles rename is running
system.switch_cpus3.rename.unblockCycles     32242282                       # Number of cycles rename is unblocking
system.switch_cpus3.rename.renamedInsts     634117144                       # Number of instructions processed by rename
system.switch_cpus3.rename.ROBFullEvents       891512                       # Number of times rename has blocked due to ROB full
system.switch_cpus3.rename.IQFullEvents      25413971                       # Number of times rename has blocked due to IQ full
system.switch_cpus3.rename.LQFullEvents       1699823                       # Number of times rename has blocked due to LQ full
system.switch_cpus3.rename.SQFullEvents        270076                       # Number of times rename has blocked due to SQ full
system.switch_cpus3.rename.fullRegistersEvents           46                       # Number of times there has been no free registers
system.switch_cpus3.rename.renamedOperands    816999767                       # Number of destination operands rename has renamed
system.switch_cpus3.rename.lookups         1623102397                       # Number of register rename lookups that rename has made
system.switch_cpus3.rename.intLookups      1037671656                       # Number of integer rename lookups
system.switch_cpus3.rename.fpLookups           324207                       # Number of floating rename lookups
system.switch_cpus3.rename.committedMaps    521023710                       # Number of HB maps that are committed
system.switch_cpus3.rename.undoneMaps       295976008                       # Number of HB maps that are undone due to squashing
system.switch_cpus3.rename.serializing              0                       # count of serializing insts renamed
system.switch_cpus3.rename.tempSerializing            0                       # count of temporary serializing insts renamed
system.switch_cpus3.rename.skidInsts         84103924                       # count of insts added to the skid buffer
system.switch_cpus3.rob.reads               736073708                       # The number of ROB reads
system.switch_cpus3.rob.writes             1234088245                       # The number of ROB writes
system.switch_cpus3.thread0.numInsts        249925861                       # Number of Instructions committed
system.switch_cpus3.thread0.numOps          404016424                       # Number of Ops committed
system.switch_cpus3.thread0.numMemRefs              0                       # Number of Memory References
system.voltage_domain.voltage                       1                       # Voltage in Volts

---------- End Simulation Statistics   ----------
