
---------- Begin Simulation Statistics ----------
final_tick                               16607537132373                       # Number of ticks from beginning of simulation (restored from checkpoints and never reset)
host_inst_rate                                 121813                       # Simulator instruction rate (inst/s)
host_mem_usage                               17511916                       # Number of bytes of host memory used
host_op_rate                                   196916                       # Simulator op (including micro ops) rate (op/s)
host_seconds                                  8207.17                       # Real time elapsed on the host
host_tick_rate                                7451348                       # Simulator tick rate (ticks/s)
sim_freq                                 1000000000000                       # Frequency of simulated ticks
sim_insts                                   999739442                       # Number of instructions simulated
sim_ops                                    1616124100                       # Number of ops (including micro ops) simulated
sim_seconds                                  0.061154                       # Number of seconds simulated
sim_ticks                                 61154471313                       # Number of ticks simulated
system.cpu0.Branches                                2                       # Number of branches fetched
system.cpu0.committedInsts                         17                       # Number of instructions committed
system.cpu0.committedOps                           23                       # Number of ops (including micro ops) committed
system.cpu0.idle_fraction                           0                       # Percentage of idle cycles
system.cpu0.l2bus.snoop_filter.hit_multi_requests         1019                       # Number of requests hitting in the snoop filter with multiple (>1) holders of the requested data.
system.cpu0.l2bus.snoop_filter.hit_multi_snoops            0                       # Number of snoops hitting in the snoop filter with multiple (>1) holders of the requested data.
system.cpu0.l2bus.snoop_filter.hit_single_requests       543777                       # Number of requests hitting in the snoop filter with a single holder of the requested data.
system.cpu0.l2bus.snoop_filter.hit_single_snoops         4733                       # Number of snoops hitting in the snoop filter with a single holder of the requested data.
system.cpu0.l2bus.snoop_filter.tot_requests      1087842                       # Total number of requests made to the snoop filter.
system.cpu0.l2bus.snoop_filter.tot_snoops         4733                       # Total number of snoops made to the snoop filter.
system.cpu0.mmucache.mmubus.snoop_filter.hit_multi_requests            0                       # Number of requests hitting in the snoop filter with multiple (>1) holders of the requested data.
system.cpu0.mmucache.mmubus.snoop_filter.hit_multi_snoops            0                       # Number of snoops hitting in the snoop filter with multiple (>1) holders of the requested data.
system.cpu0.mmucache.mmubus.snoop_filter.hit_single_requests            0                       # Number of requests hitting in the snoop filter with a single holder of the requested data.
system.cpu0.mmucache.mmubus.snoop_filter.hit_single_snoops            0                       # Number of snoops hitting in the snoop filter with a single holder of the requested data.
system.cpu0.mmucache.mmubus.snoop_filter.tot_requests            0                       # Total number of requests made to the snoop filter.
system.cpu0.mmucache.mmubus.snoop_filter.tot_snoops            0                       # Total number of snoops made to the snoop filter.
system.cpu0.not_idle_fraction                       1                       # Percentage of non-idle cycles
system.cpu0.numCycles                              32                       # number of cpu cycles simulated
system.cpu0.numWorkItemsCompleted                   0                       # number of work items this cpu completed
system.cpu0.numWorkItemsStarted                     0                       # number of work items this cpu started
system.cpu0.num_busy_cycles                        32                       # Number of busy cycles
system.cpu0.num_cc_register_reads                  13                       # number of times the CC registers were read
system.cpu0.num_cc_register_writes                 16                       # number of times the CC registers were written
system.cpu0.num_conditional_control_insts            2                       # number of instructions that are conditional controls
system.cpu0.num_fp_alu_accesses                     0                       # Number of float alu accesses
system.cpu0.num_fp_insts                            0                       # number of float instructions
system.cpu0.num_fp_register_reads                   0                       # number of times the floating registers were read
system.cpu0.num_fp_register_writes                  0                       # number of times the floating registers were written
system.cpu0.num_func_calls                          0                       # number of times a function call or return occured
system.cpu0.num_idle_cycles                         0                       # Number of idle cycles
system.cpu0.num_int_alu_accesses                   23                       # Number of integer alu accesses
system.cpu0.num_int_insts                          23                       # number of integer instructions
system.cpu0.num_int_register_reads                 50                       # number of times the integer registers were read
system.cpu0.num_int_register_writes                20                       # number of times the integer registers were written
system.cpu0.num_load_insts                          3                       # Number of load instructions
system.cpu0.num_mem_refs                            4                       # number of memory refs
system.cpu0.num_store_insts                         1                       # Number of store instructions
system.cpu0.num_vec_alu_accesses                    0                       # Number of vector alu accesses
system.cpu0.num_vec_insts                           0                       # number of vector instructions
system.cpu0.num_vec_register_reads                  0                       # number of times the vector registers were read
system.cpu0.num_vec_register_writes                 0                       # number of times the vector registers were written
system.cpu0.op_class::No_OpClass                    0      0.00%      0.00% # Class of executed instruction
system.cpu0.op_class::IntAlu                       19     82.61%     82.61% # Class of executed instruction
system.cpu0.op_class::IntMult                       0      0.00%     82.61% # Class of executed instruction
system.cpu0.op_class::IntDiv                        0      0.00%     82.61% # Class of executed instruction
system.cpu0.op_class::FloatAdd                      0      0.00%     82.61% # Class of executed instruction
system.cpu0.op_class::FloatCmp                      0      0.00%     82.61% # Class of executed instruction
system.cpu0.op_class::FloatCvt                      0      0.00%     82.61% # Class of executed instruction
system.cpu0.op_class::FloatMult                     0      0.00%     82.61% # Class of executed instruction
system.cpu0.op_class::FloatMultAcc                  0      0.00%     82.61% # Class of executed instruction
system.cpu0.op_class::FloatDiv                      0      0.00%     82.61% # Class of executed instruction
system.cpu0.op_class::FloatMisc                     0      0.00%     82.61% # Class of executed instruction
system.cpu0.op_class::FloatSqrt                     0      0.00%     82.61% # Class of executed instruction
system.cpu0.op_class::SimdAdd                       0      0.00%     82.61% # Class of executed instruction
system.cpu0.op_class::SimdAddAcc                    0      0.00%     82.61% # Class of executed instruction
system.cpu0.op_class::SimdAlu                       0      0.00%     82.61% # Class of executed instruction
system.cpu0.op_class::SimdCmp                       0      0.00%     82.61% # Class of executed instruction
system.cpu0.op_class::SimdCvt                       0      0.00%     82.61% # Class of executed instruction
system.cpu0.op_class::SimdMisc                      0      0.00%     82.61% # Class of executed instruction
system.cpu0.op_class::SimdMult                      0      0.00%     82.61% # Class of executed instruction
system.cpu0.op_class::SimdMultAcc                   0      0.00%     82.61% # Class of executed instruction
system.cpu0.op_class::SimdShift                     0      0.00%     82.61% # Class of executed instruction
system.cpu0.op_class::SimdShiftAcc                  0      0.00%     82.61% # Class of executed instruction
system.cpu0.op_class::SimdDiv                       0      0.00%     82.61% # Class of executed instruction
system.cpu0.op_class::SimdSqrt                      0      0.00%     82.61% # Class of executed instruction
system.cpu0.op_class::SimdFloatAdd                  0      0.00%     82.61% # Class of executed instruction
system.cpu0.op_class::SimdFloatAlu                  0      0.00%     82.61% # Class of executed instruction
system.cpu0.op_class::SimdFloatCmp                  0      0.00%     82.61% # Class of executed instruction
system.cpu0.op_class::SimdFloatCvt                  0      0.00%     82.61% # Class of executed instruction
system.cpu0.op_class::SimdFloatDiv                  0      0.00%     82.61% # Class of executed instruction
system.cpu0.op_class::SimdFloatMisc                 0      0.00%     82.61% # Class of executed instruction
system.cpu0.op_class::SimdFloatMult                 0      0.00%     82.61% # Class of executed instruction
system.cpu0.op_class::SimdFloatMultAcc              0      0.00%     82.61% # Class of executed instruction
system.cpu0.op_class::SimdFloatSqrt                 0      0.00%     82.61% # Class of executed instruction
system.cpu0.op_class::SimdReduceAdd                 0      0.00%     82.61% # Class of executed instruction
system.cpu0.op_class::SimdReduceAlu                 0      0.00%     82.61% # Class of executed instruction
system.cpu0.op_class::SimdReduceCmp                 0      0.00%     82.61% # Class of executed instruction
system.cpu0.op_class::SimdFloatReduceAdd            0      0.00%     82.61% # Class of executed instruction
system.cpu0.op_class::SimdFloatReduceCmp            0      0.00%     82.61% # Class of executed instruction
system.cpu0.op_class::SimdAes                       0      0.00%     82.61% # Class of executed instruction
system.cpu0.op_class::SimdAesMix                    0      0.00%     82.61% # Class of executed instruction
system.cpu0.op_class::SimdSha1Hash                  0      0.00%     82.61% # Class of executed instruction
system.cpu0.op_class::SimdSha1Hash2                 0      0.00%     82.61% # Class of executed instruction
system.cpu0.op_class::SimdSha256Hash                0      0.00%     82.61% # Class of executed instruction
system.cpu0.op_class::SimdSha256Hash2               0      0.00%     82.61% # Class of executed instruction
system.cpu0.op_class::SimdShaSigma2                 0      0.00%     82.61% # Class of executed instruction
system.cpu0.op_class::SimdShaSigma3                 0      0.00%     82.61% # Class of executed instruction
system.cpu0.op_class::SimdPredAlu                   0      0.00%     82.61% # Class of executed instruction
system.cpu0.op_class::MemRead                       3     13.04%     95.65% # Class of executed instruction
system.cpu0.op_class::MemWrite                      1      4.35%    100.00% # Class of executed instruction
system.cpu0.op_class::FloatMemRead                  0      0.00%    100.00% # Class of executed instruction
system.cpu0.op_class::FloatMemWrite                 0      0.00%    100.00% # Class of executed instruction
system.cpu0.op_class::IprAccess                     0      0.00%    100.00% # Class of executed instruction
system.cpu0.op_class::InstPrefetch                  0      0.00%    100.00% # Class of executed instruction
system.cpu0.op_class::total                        23                       # Class of executed instruction
system.cpu0.workload.numSyscalls                    0                       # Number of system calls
system.cpu1.Branches                                2                       # Number of branches fetched
system.cpu1.committedInsts                         17                       # Number of instructions committed
system.cpu1.committedOps                           23                       # Number of ops (including micro ops) committed
system.cpu1.idle_fraction                           0                       # Percentage of idle cycles
system.cpu1.l2bus.snoop_filter.hit_multi_requests         1185                       # Number of requests hitting in the snoop filter with multiple (>1) holders of the requested data.
system.cpu1.l2bus.snoop_filter.hit_multi_snoops            0                       # Number of snoops hitting in the snoop filter with multiple (>1) holders of the requested data.
system.cpu1.l2bus.snoop_filter.hit_single_requests       543649                       # Number of requests hitting in the snoop filter with a single holder of the requested data.
system.cpu1.l2bus.snoop_filter.hit_single_snoops         2883                       # Number of snoops hitting in the snoop filter with a single holder of the requested data.
system.cpu1.l2bus.snoop_filter.tot_requests      1087702                       # Total number of requests made to the snoop filter.
system.cpu1.l2bus.snoop_filter.tot_snoops         2883                       # Total number of snoops made to the snoop filter.
system.cpu1.mmucache.mmubus.snoop_filter.hit_multi_requests            0                       # Number of requests hitting in the snoop filter with multiple (>1) holders of the requested data.
system.cpu1.mmucache.mmubus.snoop_filter.hit_multi_snoops            0                       # Number of snoops hitting in the snoop filter with multiple (>1) holders of the requested data.
system.cpu1.mmucache.mmubus.snoop_filter.hit_single_requests            0                       # Number of requests hitting in the snoop filter with a single holder of the requested data.
system.cpu1.mmucache.mmubus.snoop_filter.hit_single_snoops            0                       # Number of snoops hitting in the snoop filter with a single holder of the requested data.
system.cpu1.mmucache.mmubus.snoop_filter.tot_requests            0                       # Total number of requests made to the snoop filter.
system.cpu1.mmucache.mmubus.snoop_filter.tot_snoops            0                       # Total number of snoops made to the snoop filter.
system.cpu1.not_idle_fraction                       1                       # Percentage of non-idle cycles
system.cpu1.numCycles                              32                       # number of cpu cycles simulated
system.cpu1.numWorkItemsCompleted                   0                       # number of work items this cpu completed
system.cpu1.numWorkItemsStarted                     0                       # number of work items this cpu started
system.cpu1.num_busy_cycles                        32                       # Number of busy cycles
system.cpu1.num_cc_register_reads                  13                       # number of times the CC registers were read
system.cpu1.num_cc_register_writes                 16                       # number of times the CC registers were written
system.cpu1.num_conditional_control_insts            2                       # number of instructions that are conditional controls
system.cpu1.num_fp_alu_accesses                     0                       # Number of float alu accesses
system.cpu1.num_fp_insts                            0                       # number of float instructions
system.cpu1.num_fp_register_reads                   0                       # number of times the floating registers were read
system.cpu1.num_fp_register_writes                  0                       # number of times the floating registers were written
system.cpu1.num_func_calls                          0                       # number of times a function call or return occured
system.cpu1.num_idle_cycles                         0                       # Number of idle cycles
system.cpu1.num_int_alu_accesses                   23                       # Number of integer alu accesses
system.cpu1.num_int_insts                          23                       # number of integer instructions
system.cpu1.num_int_register_reads                 50                       # number of times the integer registers were read
system.cpu1.num_int_register_writes                20                       # number of times the integer registers were written
system.cpu1.num_load_insts                          3                       # Number of load instructions
system.cpu1.num_mem_refs                            4                       # number of memory refs
system.cpu1.num_store_insts                         1                       # Number of store instructions
system.cpu1.num_vec_alu_accesses                    0                       # Number of vector alu accesses
system.cpu1.num_vec_insts                           0                       # number of vector instructions
system.cpu1.num_vec_register_reads                  0                       # number of times the vector registers were read
system.cpu1.num_vec_register_writes                 0                       # number of times the vector registers were written
system.cpu1.op_class::No_OpClass                    0      0.00%      0.00% # Class of executed instruction
system.cpu1.op_class::IntAlu                       19     82.61%     82.61% # Class of executed instruction
system.cpu1.op_class::IntMult                       0      0.00%     82.61% # Class of executed instruction
system.cpu1.op_class::IntDiv                        0      0.00%     82.61% # Class of executed instruction
system.cpu1.op_class::FloatAdd                      0      0.00%     82.61% # Class of executed instruction
system.cpu1.op_class::FloatCmp                      0      0.00%     82.61% # Class of executed instruction
system.cpu1.op_class::FloatCvt                      0      0.00%     82.61% # Class of executed instruction
system.cpu1.op_class::FloatMult                     0      0.00%     82.61% # Class of executed instruction
system.cpu1.op_class::FloatMultAcc                  0      0.00%     82.61% # Class of executed instruction
system.cpu1.op_class::FloatDiv                      0      0.00%     82.61% # Class of executed instruction
system.cpu1.op_class::FloatMisc                     0      0.00%     82.61% # Class of executed instruction
system.cpu1.op_class::FloatSqrt                     0      0.00%     82.61% # Class of executed instruction
system.cpu1.op_class::SimdAdd                       0      0.00%     82.61% # Class of executed instruction
system.cpu1.op_class::SimdAddAcc                    0      0.00%     82.61% # Class of executed instruction
system.cpu1.op_class::SimdAlu                       0      0.00%     82.61% # Class of executed instruction
system.cpu1.op_class::SimdCmp                       0      0.00%     82.61% # Class of executed instruction
system.cpu1.op_class::SimdCvt                       0      0.00%     82.61% # Class of executed instruction
system.cpu1.op_class::SimdMisc                      0      0.00%     82.61% # Class of executed instruction
system.cpu1.op_class::SimdMult                      0      0.00%     82.61% # Class of executed instruction
system.cpu1.op_class::SimdMultAcc                   0      0.00%     82.61% # Class of executed instruction
system.cpu1.op_class::SimdShift                     0      0.00%     82.61% # Class of executed instruction
system.cpu1.op_class::SimdShiftAcc                  0      0.00%     82.61% # Class of executed instruction
system.cpu1.op_class::SimdDiv                       0      0.00%     82.61% # Class of executed instruction
system.cpu1.op_class::SimdSqrt                      0      0.00%     82.61% # Class of executed instruction
system.cpu1.op_class::SimdFloatAdd                  0      0.00%     82.61% # Class of executed instruction
system.cpu1.op_class::SimdFloatAlu                  0      0.00%     82.61% # Class of executed instruction
system.cpu1.op_class::SimdFloatCmp                  0      0.00%     82.61% # Class of executed instruction
system.cpu1.op_class::SimdFloatCvt                  0      0.00%     82.61% # Class of executed instruction
system.cpu1.op_class::SimdFloatDiv                  0      0.00%     82.61% # Class of executed instruction
system.cpu1.op_class::SimdFloatMisc                 0      0.00%     82.61% # Class of executed instruction
system.cpu1.op_class::SimdFloatMult                 0      0.00%     82.61% # Class of executed instruction
system.cpu1.op_class::SimdFloatMultAcc              0      0.00%     82.61% # Class of executed instruction
system.cpu1.op_class::SimdFloatSqrt                 0      0.00%     82.61% # Class of executed instruction
system.cpu1.op_class::SimdReduceAdd                 0      0.00%     82.61% # Class of executed instruction
system.cpu1.op_class::SimdReduceAlu                 0      0.00%     82.61% # Class of executed instruction
system.cpu1.op_class::SimdReduceCmp                 0      0.00%     82.61% # Class of executed instruction
system.cpu1.op_class::SimdFloatReduceAdd            0      0.00%     82.61% # Class of executed instruction
system.cpu1.op_class::SimdFloatReduceCmp            0      0.00%     82.61% # Class of executed instruction
system.cpu1.op_class::SimdAes                       0      0.00%     82.61% # Class of executed instruction
system.cpu1.op_class::SimdAesMix                    0      0.00%     82.61% # Class of executed instruction
system.cpu1.op_class::SimdSha1Hash                  0      0.00%     82.61% # Class of executed instruction
system.cpu1.op_class::SimdSha1Hash2                 0      0.00%     82.61% # Class of executed instruction
system.cpu1.op_class::SimdSha256Hash                0      0.00%     82.61% # Class of executed instruction
system.cpu1.op_class::SimdSha256Hash2               0      0.00%     82.61% # Class of executed instruction
system.cpu1.op_class::SimdShaSigma2                 0      0.00%     82.61% # Class of executed instruction
system.cpu1.op_class::SimdShaSigma3                 0      0.00%     82.61% # Class of executed instruction
system.cpu1.op_class::SimdPredAlu                   0      0.00%     82.61% # Class of executed instruction
system.cpu1.op_class::MemRead                       3     13.04%     95.65% # Class of executed instruction
system.cpu1.op_class::MemWrite                      1      4.35%    100.00% # Class of executed instruction
system.cpu1.op_class::FloatMemRead                  0      0.00%    100.00% # Class of executed instruction
system.cpu1.op_class::FloatMemWrite                 0      0.00%    100.00% # Class of executed instruction
system.cpu1.op_class::IprAccess                     0      0.00%    100.00% # Class of executed instruction
system.cpu1.op_class::InstPrefetch                  0      0.00%    100.00% # Class of executed instruction
system.cpu1.op_class::total                        23                       # Class of executed instruction
system.cpu1.workload.numSyscalls                    0                       # Number of system calls
system.cpu2.Branches                                2                       # Number of branches fetched
system.cpu2.committedInsts                         17                       # Number of instructions committed
system.cpu2.committedOps                           23                       # Number of ops (including micro ops) committed
system.cpu2.idle_fraction                           0                       # Percentage of idle cycles
system.cpu2.l2bus.snoop_filter.hit_multi_requests         1388                       # Number of requests hitting in the snoop filter with multiple (>1) holders of the requested data.
system.cpu2.l2bus.snoop_filter.hit_multi_snoops            0                       # Number of snoops hitting in the snoop filter with multiple (>1) holders of the requested data.
system.cpu2.l2bus.snoop_filter.hit_single_requests       543515                       # Number of requests hitting in the snoop filter with a single holder of the requested data.
system.cpu2.l2bus.snoop_filter.hit_single_snoops         4732                       # Number of snoops hitting in the snoop filter with a single holder of the requested data.
system.cpu2.l2bus.snoop_filter.tot_requests      1087332                       # Total number of requests made to the snoop filter.
system.cpu2.l2bus.snoop_filter.tot_snoops         4732                       # Total number of snoops made to the snoop filter.
system.cpu2.mmucache.mmubus.snoop_filter.hit_multi_requests            0                       # Number of requests hitting in the snoop filter with multiple (>1) holders of the requested data.
system.cpu2.mmucache.mmubus.snoop_filter.hit_multi_snoops            0                       # Number of snoops hitting in the snoop filter with multiple (>1) holders of the requested data.
system.cpu2.mmucache.mmubus.snoop_filter.hit_single_requests            0                       # Number of requests hitting in the snoop filter with a single holder of the requested data.
system.cpu2.mmucache.mmubus.snoop_filter.hit_single_snoops            0                       # Number of snoops hitting in the snoop filter with a single holder of the requested data.
system.cpu2.mmucache.mmubus.snoop_filter.tot_requests            0                       # Total number of requests made to the snoop filter.
system.cpu2.mmucache.mmubus.snoop_filter.tot_snoops            0                       # Total number of snoops made to the snoop filter.
system.cpu2.not_idle_fraction                       1                       # Percentage of non-idle cycles
system.cpu2.numCycles                              32                       # number of cpu cycles simulated
system.cpu2.numWorkItemsCompleted                   0                       # number of work items this cpu completed
system.cpu2.numWorkItemsStarted                     0                       # number of work items this cpu started
system.cpu2.num_busy_cycles                        32                       # Number of busy cycles
system.cpu2.num_cc_register_reads                  13                       # number of times the CC registers were read
system.cpu2.num_cc_register_writes                 16                       # number of times the CC registers were written
system.cpu2.num_conditional_control_insts            2                       # number of instructions that are conditional controls
system.cpu2.num_fp_alu_accesses                     0                       # Number of float alu accesses
system.cpu2.num_fp_insts                            0                       # number of float instructions
system.cpu2.num_fp_register_reads                   0                       # number of times the floating registers were read
system.cpu2.num_fp_register_writes                  0                       # number of times the floating registers were written
system.cpu2.num_func_calls                          0                       # number of times a function call or return occured
system.cpu2.num_idle_cycles                         0                       # Number of idle cycles
system.cpu2.num_int_alu_accesses                   23                       # Number of integer alu accesses
system.cpu2.num_int_insts                          23                       # number of integer instructions
system.cpu2.num_int_register_reads                 50                       # number of times the integer registers were read
system.cpu2.num_int_register_writes                20                       # number of times the integer registers were written
system.cpu2.num_load_insts                          3                       # Number of load instructions
system.cpu2.num_mem_refs                            4                       # number of memory refs
system.cpu2.num_store_insts                         1                       # Number of store instructions
system.cpu2.num_vec_alu_accesses                    0                       # Number of vector alu accesses
system.cpu2.num_vec_insts                           0                       # number of vector instructions
system.cpu2.num_vec_register_reads                  0                       # number of times the vector registers were read
system.cpu2.num_vec_register_writes                 0                       # number of times the vector registers were written
system.cpu2.op_class::No_OpClass                    0      0.00%      0.00% # Class of executed instruction
system.cpu2.op_class::IntAlu                       19     82.61%     82.61% # Class of executed instruction
system.cpu2.op_class::IntMult                       0      0.00%     82.61% # Class of executed instruction
system.cpu2.op_class::IntDiv                        0      0.00%     82.61% # Class of executed instruction
system.cpu2.op_class::FloatAdd                      0      0.00%     82.61% # Class of executed instruction
system.cpu2.op_class::FloatCmp                      0      0.00%     82.61% # Class of executed instruction
system.cpu2.op_class::FloatCvt                      0      0.00%     82.61% # Class of executed instruction
system.cpu2.op_class::FloatMult                     0      0.00%     82.61% # Class of executed instruction
system.cpu2.op_class::FloatMultAcc                  0      0.00%     82.61% # Class of executed instruction
system.cpu2.op_class::FloatDiv                      0      0.00%     82.61% # Class of executed instruction
system.cpu2.op_class::FloatMisc                     0      0.00%     82.61% # Class of executed instruction
system.cpu2.op_class::FloatSqrt                     0      0.00%     82.61% # Class of executed instruction
system.cpu2.op_class::SimdAdd                       0      0.00%     82.61% # Class of executed instruction
system.cpu2.op_class::SimdAddAcc                    0      0.00%     82.61% # Class of executed instruction
system.cpu2.op_class::SimdAlu                       0      0.00%     82.61% # Class of executed instruction
system.cpu2.op_class::SimdCmp                       0      0.00%     82.61% # Class of executed instruction
system.cpu2.op_class::SimdCvt                       0      0.00%     82.61% # Class of executed instruction
system.cpu2.op_class::SimdMisc                      0      0.00%     82.61% # Class of executed instruction
system.cpu2.op_class::SimdMult                      0      0.00%     82.61% # Class of executed instruction
system.cpu2.op_class::SimdMultAcc                   0      0.00%     82.61% # Class of executed instruction
system.cpu2.op_class::SimdShift                     0      0.00%     82.61% # Class of executed instruction
system.cpu2.op_class::SimdShiftAcc                  0      0.00%     82.61% # Class of executed instruction
system.cpu2.op_class::SimdDiv                       0      0.00%     82.61% # Class of executed instruction
system.cpu2.op_class::SimdSqrt                      0      0.00%     82.61% # Class of executed instruction
system.cpu2.op_class::SimdFloatAdd                  0      0.00%     82.61% # Class of executed instruction
system.cpu2.op_class::SimdFloatAlu                  0      0.00%     82.61% # Class of executed instruction
system.cpu2.op_class::SimdFloatCmp                  0      0.00%     82.61% # Class of executed instruction
system.cpu2.op_class::SimdFloatCvt                  0      0.00%     82.61% # Class of executed instruction
system.cpu2.op_class::SimdFloatDiv                  0      0.00%     82.61% # Class of executed instruction
system.cpu2.op_class::SimdFloatMisc                 0      0.00%     82.61% # Class of executed instruction
system.cpu2.op_class::SimdFloatMult                 0      0.00%     82.61% # Class of executed instruction
system.cpu2.op_class::SimdFloatMultAcc              0      0.00%     82.61% # Class of executed instruction
system.cpu2.op_class::SimdFloatSqrt                 0      0.00%     82.61% # Class of executed instruction
system.cpu2.op_class::SimdReduceAdd                 0      0.00%     82.61% # Class of executed instruction
system.cpu2.op_class::SimdReduceAlu                 0      0.00%     82.61% # Class of executed instruction
system.cpu2.op_class::SimdReduceCmp                 0      0.00%     82.61% # Class of executed instruction
system.cpu2.op_class::SimdFloatReduceAdd            0      0.00%     82.61% # Class of executed instruction
system.cpu2.op_class::SimdFloatReduceCmp            0      0.00%     82.61% # Class of executed instruction
system.cpu2.op_class::SimdAes                       0      0.00%     82.61% # Class of executed instruction
system.cpu2.op_class::SimdAesMix                    0      0.00%     82.61% # Class of executed instruction
system.cpu2.op_class::SimdSha1Hash                  0      0.00%     82.61% # Class of executed instruction
system.cpu2.op_class::SimdSha1Hash2                 0      0.00%     82.61% # Class of executed instruction
system.cpu2.op_class::SimdSha256Hash                0      0.00%     82.61% # Class of executed instruction
system.cpu2.op_class::SimdSha256Hash2               0      0.00%     82.61% # Class of executed instruction
system.cpu2.op_class::SimdShaSigma2                 0      0.00%     82.61% # Class of executed instruction
system.cpu2.op_class::SimdShaSigma3                 0      0.00%     82.61% # Class of executed instruction
system.cpu2.op_class::SimdPredAlu                   0      0.00%     82.61% # Class of executed instruction
system.cpu2.op_class::MemRead                       3     13.04%     95.65% # Class of executed instruction
system.cpu2.op_class::MemWrite                      1      4.35%    100.00% # Class of executed instruction
system.cpu2.op_class::FloatMemRead                  0      0.00%    100.00% # Class of executed instruction
system.cpu2.op_class::FloatMemWrite                 0      0.00%    100.00% # Class of executed instruction
system.cpu2.op_class::IprAccess                     0      0.00%    100.00% # Class of executed instruction
system.cpu2.op_class::InstPrefetch                  0      0.00%    100.00% # Class of executed instruction
system.cpu2.op_class::total                        23                       # Class of executed instruction
system.cpu2.workload.numSyscalls                    0                       # Number of system calls
system.cpu3.Branches                                2                       # Number of branches fetched
system.cpu3.committedInsts                         17                       # Number of instructions committed
system.cpu3.committedOps                           23                       # Number of ops (including micro ops) committed
system.cpu3.idle_fraction                           0                       # Percentage of idle cycles
system.cpu3.l2bus.snoop_filter.hit_multi_requests         1032                       # Number of requests hitting in the snoop filter with multiple (>1) holders of the requested data.
system.cpu3.l2bus.snoop_filter.hit_multi_snoops            0                       # Number of snoops hitting in the snoop filter with multiple (>1) holders of the requested data.
system.cpu3.l2bus.snoop_filter.hit_single_requests       543772                       # Number of requests hitting in the snoop filter with a single holder of the requested data.
system.cpu3.l2bus.snoop_filter.hit_single_snoops         2888                       # Number of snoops hitting in the snoop filter with a single holder of the requested data.
system.cpu3.l2bus.snoop_filter.tot_requests      1087951                       # Total number of requests made to the snoop filter.
system.cpu3.l2bus.snoop_filter.tot_snoops         2888                       # Total number of snoops made to the snoop filter.
system.cpu3.mmucache.mmubus.snoop_filter.hit_multi_requests            0                       # Number of requests hitting in the snoop filter with multiple (>1) holders of the requested data.
system.cpu3.mmucache.mmubus.snoop_filter.hit_multi_snoops            0                       # Number of snoops hitting in the snoop filter with multiple (>1) holders of the requested data.
system.cpu3.mmucache.mmubus.snoop_filter.hit_single_requests            0                       # Number of requests hitting in the snoop filter with a single holder of the requested data.
system.cpu3.mmucache.mmubus.snoop_filter.hit_single_snoops            0                       # Number of snoops hitting in the snoop filter with a single holder of the requested data.
system.cpu3.mmucache.mmubus.snoop_filter.tot_requests            0                       # Total number of requests made to the snoop filter.
system.cpu3.mmucache.mmubus.snoop_filter.tot_snoops            0                       # Total number of snoops made to the snoop filter.
system.cpu3.not_idle_fraction                       1                       # Percentage of non-idle cycles
system.cpu3.numCycles                              32                       # number of cpu cycles simulated
system.cpu3.numWorkItemsCompleted                   0                       # number of work items this cpu completed
system.cpu3.numWorkItemsStarted                     0                       # number of work items this cpu started
system.cpu3.num_busy_cycles                        32                       # Number of busy cycles
system.cpu3.num_cc_register_reads                  13                       # number of times the CC registers were read
system.cpu3.num_cc_register_writes                 16                       # number of times the CC registers were written
system.cpu3.num_conditional_control_insts            2                       # number of instructions that are conditional controls
system.cpu3.num_fp_alu_accesses                     0                       # Number of float alu accesses
system.cpu3.num_fp_insts                            0                       # number of float instructions
system.cpu3.num_fp_register_reads                   0                       # number of times the floating registers were read
system.cpu3.num_fp_register_writes                  0                       # number of times the floating registers were written
system.cpu3.num_func_calls                          0                       # number of times a function call or return occured
system.cpu3.num_idle_cycles                         0                       # Number of idle cycles
system.cpu3.num_int_alu_accesses                   23                       # Number of integer alu accesses
system.cpu3.num_int_insts                          23                       # number of integer instructions
system.cpu3.num_int_register_reads                 50                       # number of times the integer registers were read
system.cpu3.num_int_register_writes                20                       # number of times the integer registers were written
system.cpu3.num_load_insts                          3                       # Number of load instructions
system.cpu3.num_mem_refs                            4                       # number of memory refs
system.cpu3.num_store_insts                         1                       # Number of store instructions
system.cpu3.num_vec_alu_accesses                    0                       # Number of vector alu accesses
system.cpu3.num_vec_insts                           0                       # number of vector instructions
system.cpu3.num_vec_register_reads                  0                       # number of times the vector registers were read
system.cpu3.num_vec_register_writes                 0                       # number of times the vector registers were written
system.cpu3.op_class::No_OpClass                    0      0.00%      0.00% # Class of executed instruction
system.cpu3.op_class::IntAlu                       19     82.61%     82.61% # Class of executed instruction
system.cpu3.op_class::IntMult                       0      0.00%     82.61% # Class of executed instruction
system.cpu3.op_class::IntDiv                        0      0.00%     82.61% # Class of executed instruction
system.cpu3.op_class::FloatAdd                      0      0.00%     82.61% # Class of executed instruction
system.cpu3.op_class::FloatCmp                      0      0.00%     82.61% # Class of executed instruction
system.cpu3.op_class::FloatCvt                      0      0.00%     82.61% # Class of executed instruction
system.cpu3.op_class::FloatMult                     0      0.00%     82.61% # Class of executed instruction
system.cpu3.op_class::FloatMultAcc                  0      0.00%     82.61% # Class of executed instruction
system.cpu3.op_class::FloatDiv                      0      0.00%     82.61% # Class of executed instruction
system.cpu3.op_class::FloatMisc                     0      0.00%     82.61% # Class of executed instruction
system.cpu3.op_class::FloatSqrt                     0      0.00%     82.61% # Class of executed instruction
system.cpu3.op_class::SimdAdd                       0      0.00%     82.61% # Class of executed instruction
system.cpu3.op_class::SimdAddAcc                    0      0.00%     82.61% # Class of executed instruction
system.cpu3.op_class::SimdAlu                       0      0.00%     82.61% # Class of executed instruction
system.cpu3.op_class::SimdCmp                       0      0.00%     82.61% # Class of executed instruction
system.cpu3.op_class::SimdCvt                       0      0.00%     82.61% # Class of executed instruction
system.cpu3.op_class::SimdMisc                      0      0.00%     82.61% # Class of executed instruction
system.cpu3.op_class::SimdMult                      0      0.00%     82.61% # Class of executed instruction
system.cpu3.op_class::SimdMultAcc                   0      0.00%     82.61% # Class of executed instruction
system.cpu3.op_class::SimdShift                     0      0.00%     82.61% # Class of executed instruction
system.cpu3.op_class::SimdShiftAcc                  0      0.00%     82.61% # Class of executed instruction
system.cpu3.op_class::SimdDiv                       0      0.00%     82.61% # Class of executed instruction
system.cpu3.op_class::SimdSqrt                      0      0.00%     82.61% # Class of executed instruction
system.cpu3.op_class::SimdFloatAdd                  0      0.00%     82.61% # Class of executed instruction
system.cpu3.op_class::SimdFloatAlu                  0      0.00%     82.61% # Class of executed instruction
system.cpu3.op_class::SimdFloatCmp                  0      0.00%     82.61% # Class of executed instruction
system.cpu3.op_class::SimdFloatCvt                  0      0.00%     82.61% # Class of executed instruction
system.cpu3.op_class::SimdFloatDiv                  0      0.00%     82.61% # Class of executed instruction
system.cpu3.op_class::SimdFloatMisc                 0      0.00%     82.61% # Class of executed instruction
system.cpu3.op_class::SimdFloatMult                 0      0.00%     82.61% # Class of executed instruction
system.cpu3.op_class::SimdFloatMultAcc              0      0.00%     82.61% # Class of executed instruction
system.cpu3.op_class::SimdFloatSqrt                 0      0.00%     82.61% # Class of executed instruction
system.cpu3.op_class::SimdReduceAdd                 0      0.00%     82.61% # Class of executed instruction
system.cpu3.op_class::SimdReduceAlu                 0      0.00%     82.61% # Class of executed instruction
system.cpu3.op_class::SimdReduceCmp                 0      0.00%     82.61% # Class of executed instruction
system.cpu3.op_class::SimdFloatReduceAdd            0      0.00%     82.61% # Class of executed instruction
system.cpu3.op_class::SimdFloatReduceCmp            0      0.00%     82.61% # Class of executed instruction
system.cpu3.op_class::SimdAes                       0      0.00%     82.61% # Class of executed instruction
system.cpu3.op_class::SimdAesMix                    0      0.00%     82.61% # Class of executed instruction
system.cpu3.op_class::SimdSha1Hash                  0      0.00%     82.61% # Class of executed instruction
system.cpu3.op_class::SimdSha1Hash2                 0      0.00%     82.61% # Class of executed instruction
system.cpu3.op_class::SimdSha256Hash                0      0.00%     82.61% # Class of executed instruction
system.cpu3.op_class::SimdSha256Hash2               0      0.00%     82.61% # Class of executed instruction
system.cpu3.op_class::SimdShaSigma2                 0      0.00%     82.61% # Class of executed instruction
system.cpu3.op_class::SimdShaSigma3                 0      0.00%     82.61% # Class of executed instruction
system.cpu3.op_class::SimdPredAlu                   0      0.00%     82.61% # Class of executed instruction
system.cpu3.op_class::MemRead                       3     13.04%     95.65% # Class of executed instruction
system.cpu3.op_class::MemWrite                      1      4.35%    100.00% # Class of executed instruction
system.cpu3.op_class::FloatMemRead                  0      0.00%    100.00% # Class of executed instruction
system.cpu3.op_class::FloatMemWrite                 0      0.00%    100.00% # Class of executed instruction
system.cpu3.op_class::IprAccess                     0      0.00%    100.00% # Class of executed instruction
system.cpu3.op_class::InstPrefetch                  0      0.00%    100.00% # Class of executed instruction
system.cpu3.op_class::total                        23                       # Class of executed instruction
system.cpu3.workload.numSyscalls                    0                       # Number of system calls
system.l3bus.snoop_filter.hit_multi_requests            0                       # Number of requests hitting in the snoop filter with multiple (>1) holders of the requested data.
system.l3bus.snoop_filter.hit_multi_snoops            0                       # Number of snoops hitting in the snoop filter with multiple (>1) holders of the requested data.
system.l3bus.snoop_filter.hit_single_requests       338124                       # Number of requests hitting in the snoop filter with a single holder of the requested data.
system.l3bus.snoop_filter.hit_single_snoops            0                       # Number of snoops hitting in the snoop filter with a single holder of the requested data.
system.l3bus.snoop_filter.tot_requests         689333                       # Total number of requests made to the snoop filter.
system.l3bus.snoop_filter.tot_snoops                0                       # Total number of snoops made to the snoop filter.
system.membus.snoop_filter.hit_multi_requests            0                       # Number of requests hitting in the snoop filter with multiple (>1) holders of the requested data.
system.membus.snoop_filter.hit_multi_snoops            0                       # Number of snoops hitting in the snoop filter with multiple (>1) holders of the requested data.
system.membus.snoop_filter.hit_single_requests       230448                       # Number of requests hitting in the snoop filter with a single holder of the requested data.
system.membus.snoop_filter.hit_single_snoops            0                       # Number of snoops hitting in the snoop filter with a single holder of the requested data.
system.membus.snoop_filter.tot_requests        539171                       # Total number of requests made to the snoop filter.
system.membus.snoop_filter.tot_snoops               0                       # Total number of snoops made to the snoop filter.
system.switch_cpus0.cc_regfile_reads        223563378                       # number of cc regfile reads
system.switch_cpus0.cc_regfile_writes       199508130                       # number of cc regfile writes
system.switch_cpus0.committedInsts          249934961                       # Number of Instructions Simulated
system.switch_cpus0.committedOps            404031143                       # Number of Ops (including micro ops) Simulated
system.switch_cpus0.cpi                      0.734779                       # CPI: Cycles Per Instruction
system.switch_cpus0.cpi_total                0.734779                       # CPI: Total CPI of All Threads
system.switch_cpus0.fp_regfile_reads           230304                       # number of floating regfile reads
system.switch_cpus0.fp_regfile_writes          230416                       # number of floating regfile writes
system.switch_cpus0.idleCycles                 124172                       # Total number of cycles that the CPU has spent unscheduled due to idling
system.switch_cpus0.iew.branchMispredicts      3349974                       # Number of branch mispredicts detected at execute
system.switch_cpus0.iew.exec_branches        43998418                       # Number of branches executed
system.switch_cpus0.iew.exec_nop                    0                       # number of nop insts executed
system.switch_cpus0.iew.exec_rate            2.788220                       # Inst execution rate
system.switch_cpus0.iew.exec_refs           118400297                       # number of memory reference insts executed
system.switch_cpus0.iew.exec_stores          36227819                       # Number of stores executed
system.switch_cpus0.iew.exec_swp                    0                       # number of swp insts executed
system.switch_cpus0.iew.iewBlockCycles       26311639                       # Number of cycles IEW is blocking
system.switch_cpus0.iew.iewDispLoadInsts     94525983                       # Number of dispatched load instructions
system.switch_cpus0.iew.iewDispNonSpecInsts            0                       # Number of dispatched non-speculative instructions
system.switch_cpus0.iew.iewDispSquashedInsts        85037                       # Number of squashed instructions skipped by dispatch
system.switch_cpus0.iew.iewDispStoreInsts     43393671                       # Number of dispatched store instructions
system.switch_cpus0.iew.iewDispatchedInsts    603573476                       # Number of instructions dispatched to IQ
system.switch_cpus0.iew.iewExecLoadInsts     82172478                       # Number of load instructions executed
system.switch_cpus0.iew.iewExecSquashedInsts      6767286                       # Number of squashed instructions skipped in execute
system.switch_cpus0.iew.iewExecutedInsts    512048265                       # Number of executed instructions
system.switch_cpus0.iew.iewIQFullEvents         46541                       # Number of times the IQ has become full, causing a stall
system.switch_cpus0.iew.iewIdleCycles               0                       # Number of cycles IEW is idle
system.switch_cpus0.iew.iewLSQFullEvents        50201                       # Number of times the LSQ has become full, causing a stall
system.switch_cpus0.iew.iewSquashCycles       3013056                       # Number of cycles IEW is squashing
system.switch_cpus0.iew.iewUnblockCycles       110752                       # Number of cycles IEW is unblocking
system.switch_cpus0.iew.memOrderViolationEvents       109693                       # Number of memory order violations
system.switch_cpus0.iew.predictedNotTakenIncorrect      1668948                       # Number of branches that were predicted not taken incorrectly
system.switch_cpus0.iew.predictedTakenIncorrect      1681026                       # Number of branches that were predicted taken incorrectly
system.switch_cpus0.iew.wb_consumers        664443132                       # num instructions consuming a value
system.switch_cpus0.iew.wb_count            509745642                       # cumulative count of insts written-back
system.switch_cpus0.iew.wb_fanout            0.583359                       # average fanout of values written-back
system.switch_cpus0.iew.wb_producers        387608974                       # num instructions producing a value
system.switch_cpus0.iew.wb_rate              2.775681                       # insts written-back per cycle
system.switch_cpus0.iew.wb_sent             511361477                       # cumulative count of insts sent to commit
system.switch_cpus0.int_regfile_reads       795611656                       # number of integer regfile reads
system.switch_cpus0.int_regfile_writes      434525966                       # number of integer regfile writes
system.switch_cpus0.ipc                      1.360953                       # IPC: Instructions Per Cycle
system.switch_cpus0.ipc_total                1.360953                       # IPC: Total IPC of All Threads
system.switch_cpus0.iq.FU_type_0::No_OpClass      1319003      0.25%      0.25% # Type of FU issued
system.switch_cpus0.iq.FU_type_0::IntAlu    392206620     75.60%     75.85% # Type of FU issued
system.switch_cpus0.iq.FU_type_0::IntMult      3432601      0.66%     76.51% # Type of FU issued
system.switch_cpus0.iq.FU_type_0::IntDiv       893684      0.17%     76.68% # Type of FU issued
system.switch_cpus0.iq.FU_type_0::FloatAdd            0      0.00%     76.68% # Type of FU issued
system.switch_cpus0.iq.FU_type_0::FloatCmp            0      0.00%     76.68% # Type of FU issued
system.switch_cpus0.iq.FU_type_0::FloatCvt            0      0.00%     76.68% # Type of FU issued
system.switch_cpus0.iq.FU_type_0::FloatMult            0      0.00%     76.68% # Type of FU issued
system.switch_cpus0.iq.FU_type_0::FloatMultAcc            0      0.00%     76.68% # Type of FU issued
system.switch_cpus0.iq.FU_type_0::FloatDiv            0      0.00%     76.68% # Type of FU issued
system.switch_cpus0.iq.FU_type_0::FloatMisc            0      0.00%     76.68% # Type of FU issued
system.switch_cpus0.iq.FU_type_0::FloatSqrt            0      0.00%     76.68% # Type of FU issued
system.switch_cpus0.iq.FU_type_0::SimdAdd            0      0.00%     76.68% # Type of FU issued
system.switch_cpus0.iq.FU_type_0::SimdAddAcc            0      0.00%     76.68% # Type of FU issued
system.switch_cpus0.iq.FU_type_0::SimdAlu            0      0.00%     76.68% # Type of FU issued
system.switch_cpus0.iq.FU_type_0::SimdCmp            0      0.00%     76.68% # Type of FU issued
system.switch_cpus0.iq.FU_type_0::SimdCvt            0      0.00%     76.68% # Type of FU issued
system.switch_cpus0.iq.FU_type_0::SimdMisc            0      0.00%     76.68% # Type of FU issued
system.switch_cpus0.iq.FU_type_0::SimdMult            0      0.00%     76.68% # Type of FU issued
system.switch_cpus0.iq.FU_type_0::SimdMultAcc            0      0.00%     76.68% # Type of FU issued
system.switch_cpus0.iq.FU_type_0::SimdShift            0      0.00%     76.68% # Type of FU issued
system.switch_cpus0.iq.FU_type_0::SimdShiftAcc            0      0.00%     76.68% # Type of FU issued
system.switch_cpus0.iq.FU_type_0::SimdDiv            0      0.00%     76.68% # Type of FU issued
system.switch_cpus0.iq.FU_type_0::SimdSqrt            0      0.00%     76.68% # Type of FU issued
system.switch_cpus0.iq.FU_type_0::SimdFloatAdd            0      0.00%     76.68% # Type of FU issued
system.switch_cpus0.iq.FU_type_0::SimdFloatAlu            0      0.00%     76.68% # Type of FU issued
system.switch_cpus0.iq.FU_type_0::SimdFloatCmp            0      0.00%     76.68% # Type of FU issued
system.switch_cpus0.iq.FU_type_0::SimdFloatCvt            0      0.00%     76.68% # Type of FU issued
system.switch_cpus0.iq.FU_type_0::SimdFloatDiv            0      0.00%     76.68% # Type of FU issued
system.switch_cpus0.iq.FU_type_0::SimdFloatMisc            0      0.00%     76.68% # Type of FU issued
system.switch_cpus0.iq.FU_type_0::SimdFloatMult            0      0.00%     76.68% # Type of FU issued
system.switch_cpus0.iq.FU_type_0::SimdFloatMultAcc            0      0.00%     76.68% # Type of FU issued
system.switch_cpus0.iq.FU_type_0::SimdFloatSqrt            0      0.00%     76.68% # Type of FU issued
system.switch_cpus0.iq.FU_type_0::SimdReduceAdd            0      0.00%     76.68% # Type of FU issued
system.switch_cpus0.iq.FU_type_0::SimdReduceAlu            0      0.00%     76.68% # Type of FU issued
system.switch_cpus0.iq.FU_type_0::SimdReduceCmp            0      0.00%     76.68% # Type of FU issued
system.switch_cpus0.iq.FU_type_0::SimdFloatReduceAdd            0      0.00%     76.68% # Type of FU issued
system.switch_cpus0.iq.FU_type_0::SimdFloatReduceCmp            0      0.00%     76.68% # Type of FU issued
system.switch_cpus0.iq.FU_type_0::SimdAes            0      0.00%     76.68% # Type of FU issued
system.switch_cpus0.iq.FU_type_0::SimdAesMix            0      0.00%     76.68% # Type of FU issued
system.switch_cpus0.iq.FU_type_0::SimdSha1Hash            0      0.00%     76.68% # Type of FU issued
system.switch_cpus0.iq.FU_type_0::SimdSha1Hash2            0      0.00%     76.68% # Type of FU issued
system.switch_cpus0.iq.FU_type_0::SimdSha256Hash            0      0.00%     76.68% # Type of FU issued
system.switch_cpus0.iq.FU_type_0::SimdSha256Hash2            0      0.00%     76.68% # Type of FU issued
system.switch_cpus0.iq.FU_type_0::SimdShaSigma2            0      0.00%     76.68% # Type of FU issued
system.switch_cpus0.iq.FU_type_0::SimdShaSigma3            0      0.00%     76.68% # Type of FU issued
system.switch_cpus0.iq.FU_type_0::SimdPredAlu            0      0.00%     76.68% # Type of FU issued
system.switch_cpus0.iq.FU_type_0::MemRead     83680607     16.13%     92.81% # Type of FU issued
system.switch_cpus0.iq.FU_type_0::MemWrite     36822284      7.10%     99.91% # Type of FU issued
system.switch_cpus0.iq.FU_type_0::FloatMemRead       230426      0.04%     99.96% # Type of FU issued
system.switch_cpus0.iq.FU_type_0::FloatMemWrite       230328      0.04%    100.00% # Type of FU issued
system.switch_cpus0.iq.FU_type_0::IprAccess            0      0.00%    100.00% # Type of FU issued
system.switch_cpus0.iq.FU_type_0::InstPrefetch            0      0.00%    100.00% # Type of FU issued
system.switch_cpus0.iq.FU_type_0::total     518815553                       # Type of FU issued
system.switch_cpus0.iq.fp_alu_accesses         460754                       # Number of floating point alu accesses
system.switch_cpus0.iq.fp_inst_queue_reads       921508                       # Number of floating instruction queue reads
system.switch_cpus0.iq.fp_inst_queue_wakeup_accesses       460632                       # Number of floating instruction queue wakeup accesses
system.switch_cpus0.iq.fp_inst_queue_writes       820796                       # Number of floating instruction queue writes
system.switch_cpus0.iq.fu_busy_cnt           10919164                       # FU busy when requested
system.switch_cpus0.iq.fu_busy_rate          0.021046                       # FU busy rate (busy events/executed inst)
system.switch_cpus0.iq.fu_full::No_OpClass            0      0.00%      0.00% # attempts to use FU when none available
system.switch_cpus0.iq.fu_full::IntAlu        7542937     69.08%     69.08% # attempts to use FU when none available
system.switch_cpus0.iq.fu_full::IntMult             0      0.00%     69.08% # attempts to use FU when none available
system.switch_cpus0.iq.fu_full::IntDiv              0      0.00%     69.08% # attempts to use FU when none available
system.switch_cpus0.iq.fu_full::FloatAdd            0      0.00%     69.08% # attempts to use FU when none available
system.switch_cpus0.iq.fu_full::FloatCmp            0      0.00%     69.08% # attempts to use FU when none available
system.switch_cpus0.iq.fu_full::FloatCvt            0      0.00%     69.08% # attempts to use FU when none available
system.switch_cpus0.iq.fu_full::FloatMult            0      0.00%     69.08% # attempts to use FU when none available
system.switch_cpus0.iq.fu_full::FloatMultAcc            0      0.00%     69.08% # attempts to use FU when none available
system.switch_cpus0.iq.fu_full::FloatDiv            0      0.00%     69.08% # attempts to use FU when none available
system.switch_cpus0.iq.fu_full::FloatMisc            0      0.00%     69.08% # attempts to use FU when none available
system.switch_cpus0.iq.fu_full::FloatSqrt            0      0.00%     69.08% # attempts to use FU when none available
system.switch_cpus0.iq.fu_full::SimdAdd             0      0.00%     69.08% # attempts to use FU when none available
system.switch_cpus0.iq.fu_full::SimdAddAcc            0      0.00%     69.08% # attempts to use FU when none available
system.switch_cpus0.iq.fu_full::SimdAlu             0      0.00%     69.08% # attempts to use FU when none available
system.switch_cpus0.iq.fu_full::SimdCmp             0      0.00%     69.08% # attempts to use FU when none available
system.switch_cpus0.iq.fu_full::SimdCvt             0      0.00%     69.08% # attempts to use FU when none available
system.switch_cpus0.iq.fu_full::SimdMisc            0      0.00%     69.08% # attempts to use FU when none available
system.switch_cpus0.iq.fu_full::SimdMult            0      0.00%     69.08% # attempts to use FU when none available
system.switch_cpus0.iq.fu_full::SimdMultAcc            0      0.00%     69.08% # attempts to use FU when none available
system.switch_cpus0.iq.fu_full::SimdShift            0      0.00%     69.08% # attempts to use FU when none available
system.switch_cpus0.iq.fu_full::SimdShiftAcc            0      0.00%     69.08% # attempts to use FU when none available
system.switch_cpus0.iq.fu_full::SimdDiv             0      0.00%     69.08% # attempts to use FU when none available
system.switch_cpus0.iq.fu_full::SimdSqrt            0      0.00%     69.08% # attempts to use FU when none available
system.switch_cpus0.iq.fu_full::SimdFloatAdd            0      0.00%     69.08% # attempts to use FU when none available
system.switch_cpus0.iq.fu_full::SimdFloatAlu            0      0.00%     69.08% # attempts to use FU when none available
system.switch_cpus0.iq.fu_full::SimdFloatCmp            0      0.00%     69.08% # attempts to use FU when none available
system.switch_cpus0.iq.fu_full::SimdFloatCvt            0      0.00%     69.08% # attempts to use FU when none available
system.switch_cpus0.iq.fu_full::SimdFloatDiv            0      0.00%     69.08% # attempts to use FU when none available
system.switch_cpus0.iq.fu_full::SimdFloatMisc            0      0.00%     69.08% # attempts to use FU when none available
system.switch_cpus0.iq.fu_full::SimdFloatMult            0      0.00%     69.08% # attempts to use FU when none available
system.switch_cpus0.iq.fu_full::SimdFloatMultAcc            0      0.00%     69.08% # attempts to use FU when none available
system.switch_cpus0.iq.fu_full::SimdFloatSqrt            0      0.00%     69.08% # attempts to use FU when none available
system.switch_cpus0.iq.fu_full::SimdReduceAdd            0      0.00%     69.08% # attempts to use FU when none available
system.switch_cpus0.iq.fu_full::SimdReduceAlu            0      0.00%     69.08% # attempts to use FU when none available
system.switch_cpus0.iq.fu_full::SimdReduceCmp            0      0.00%     69.08% # attempts to use FU when none available
system.switch_cpus0.iq.fu_full::SimdFloatReduceAdd            0      0.00%     69.08% # attempts to use FU when none available
system.switch_cpus0.iq.fu_full::SimdFloatReduceCmp            0      0.00%     69.08% # attempts to use FU when none available
system.switch_cpus0.iq.fu_full::SimdAes             0      0.00%     69.08% # attempts to use FU when none available
system.switch_cpus0.iq.fu_full::SimdAesMix            0      0.00%     69.08% # attempts to use FU when none available
system.switch_cpus0.iq.fu_full::SimdSha1Hash            0      0.00%     69.08% # attempts to use FU when none available
system.switch_cpus0.iq.fu_full::SimdSha1Hash2            0      0.00%     69.08% # attempts to use FU when none available
system.switch_cpus0.iq.fu_full::SimdSha256Hash            0      0.00%     69.08% # attempts to use FU when none available
system.switch_cpus0.iq.fu_full::SimdSha256Hash2            0      0.00%     69.08% # attempts to use FU when none available
system.switch_cpus0.iq.fu_full::SimdShaSigma2            0      0.00%     69.08% # attempts to use FU when none available
system.switch_cpus0.iq.fu_full::SimdShaSigma3            0      0.00%     69.08% # attempts to use FU when none available
system.switch_cpus0.iq.fu_full::SimdPredAlu            0      0.00%     69.08% # attempts to use FU when none available
system.switch_cpus0.iq.fu_full::MemRead       2429944     22.25%     91.33% # attempts to use FU when none available
system.switch_cpus0.iq.fu_full::MemWrite       946283      8.67%    100.00% # attempts to use FU when none available
system.switch_cpus0.iq.fu_full::FloatMemRead            0      0.00%    100.00% # attempts to use FU when none available
system.switch_cpus0.iq.fu_full::FloatMemWrite            0      0.00%    100.00% # attempts to use FU when none available
system.switch_cpus0.iq.fu_full::IprAccess            0      0.00%    100.00% # attempts to use FU when none available
system.switch_cpus0.iq.fu_full::InstPrefetch            0      0.00%    100.00% # attempts to use FU when none available
system.switch_cpus0.iq.int_alu_accesses     527954960                       # Number of integer alu accesses
system.switch_cpus0.iq.int_inst_queue_reads   1232553615                       # Number of integer instruction queue reads
system.switch_cpus0.iq.int_inst_queue_wakeup_accesses    509285010                       # Number of integer instruction queue wakeup accesses
system.switch_cpus0.iq.int_inst_queue_writes    802400171                       # Number of integer instruction queue writes
system.switch_cpus0.iq.iqInstsAdded         603573476                       # Number of instructions added to the IQ (excludes non-spec)
system.switch_cpus0.iq.iqInstsIssued        518815553                       # Number of instructions issued
system.switch_cpus0.iq.iqSquashedInstsExamined    199542266                       # Number of squashed instructions iterated over during squash; mainly for profiling
system.switch_cpus0.iq.iqSquashedInstsIssued      1401998                       # Number of squashed instructions issued
system.switch_cpus0.iq.iqSquashedOperandsExamined    306456626                       # Number of squashed operands that are examined and possibly removed from graph
system.switch_cpus0.iq.issued_per_cycle::samples    183522857                       # Number of insts issued each cycle
system.switch_cpus0.iq.issued_per_cycle::mean     2.826981                       # Number of insts issued each cycle
system.switch_cpus0.iq.issued_per_cycle::stdev     2.557068                       # Number of insts issued each cycle
system.switch_cpus0.iq.issued_per_cycle::underflows            0      0.00%      0.00% # Number of insts issued each cycle
system.switch_cpus0.iq.issued_per_cycle::0     55710683     30.36%     30.36% # Number of insts issued each cycle
system.switch_cpus0.iq.issued_per_cycle::1     16003792      8.72%     39.08% # Number of insts issued each cycle
system.switch_cpus0.iq.issued_per_cycle::2     19949125     10.87%     49.95% # Number of insts issued each cycle
system.switch_cpus0.iq.issued_per_cycle::3     20311174     11.07%     61.01% # Number of insts issued each cycle
system.switch_cpus0.iq.issued_per_cycle::4     19488590     10.62%     71.63% # Number of insts issued each cycle
system.switch_cpus0.iq.issued_per_cycle::5     16531673      9.01%     80.64% # Number of insts issued each cycle
system.switch_cpus0.iq.issued_per_cycle::6     16001287      8.72%     89.36% # Number of insts issued each cycle
system.switch_cpus0.iq.issued_per_cycle::7     10852722      5.91%     95.27% # Number of insts issued each cycle
system.switch_cpus0.iq.issued_per_cycle::8      8673811      4.73%    100.00% # Number of insts issued each cycle
system.switch_cpus0.iq.issued_per_cycle::overflows            0      0.00%    100.00% # Number of insts issued each cycle
system.switch_cpus0.iq.issued_per_cycle::min_value            0                       # Number of insts issued each cycle
system.switch_cpus0.iq.issued_per_cycle::max_value            8                       # Number of insts issued each cycle
system.switch_cpus0.iq.issued_per_cycle::total    183522857                       # Number of insts issued each cycle
system.switch_cpus0.iq.rate                  2.825069                       # Inst issue rate
system.switch_cpus0.iq.vec_alu_accesses             0                       # Number of vector alu accesses
system.switch_cpus0.iq.vec_inst_queue_reads            0                       # Number of vector instruction queue reads
system.switch_cpus0.iq.vec_inst_queue_wakeup_accesses            0                       # Number of vector instruction queue wakeup accesses
system.switch_cpus0.iq.vec_inst_queue_writes            0                       # Number of vector instruction queue writes
system.switch_cpus0.memDep0.conflictingLoads     14954268                       # Number of conflicting loads.
system.switch_cpus0.memDep0.conflictingStores      6594770                       # Number of conflicting stores.
system.switch_cpus0.memDep0.insertedLoads     94525983                       # Number of loads inserted to the mem dependence unit.
system.switch_cpus0.memDep0.insertedStores     43393671                       # Number of stores inserted to the mem dependence unit.
system.switch_cpus0.misc_regfile_reads      222466602                       # number of misc regfile reads
system.switch_cpus0.misc_regfile_writes             1                       # number of misc regfile writes
system.switch_cpus0.numCycles               183647029                       # number of cpu cycles simulated
system.switch_cpus0.numWorkItemsCompleted            0                       # number of work items this cpu completed
system.switch_cpus0.numWorkItemsStarted             0                       # number of work items this cpu started
system.switch_cpus0.timesIdled                   3451                       # Number of times that the entire CPU went into an idle state and unscheduled itself
system.switch_cpus1.cc_regfile_reads        223560156                       # number of cc regfile reads
system.switch_cpus1.cc_regfile_writes       199505403                       # number of cc regfile writes
system.switch_cpus1.committedInsts          249934941                       # Number of Instructions Simulated
system.switch_cpus1.committedOps            404031100                       # Number of Ops (including micro ops) Simulated
system.switch_cpus1.cpi                      0.734779                       # CPI: Cycles Per Instruction
system.switch_cpus1.cpi_total                0.734779                       # CPI: Total CPI of All Threads
system.switch_cpus1.fp_regfile_reads           230312                       # number of floating regfile reads
system.switch_cpus1.fp_regfile_writes          230418                       # number of floating regfile writes
system.switch_cpus1.idleCycles                 122665                       # Total number of cycles that the CPU has spent unscheduled due to idling
system.switch_cpus1.iew.branchMispredicts      3349974                       # Number of branch mispredicts detected at execute
system.switch_cpus1.iew.exec_branches        44002847                       # Number of branches executed
system.switch_cpus1.iew.exec_nop                    0                       # number of nop insts executed
system.switch_cpus1.iew.exec_rate            2.788356                       # Inst execution rate
system.switch_cpus1.iew.exec_refs           118412527                       # number of memory reference insts executed
system.switch_cpus1.iew.exec_stores          36229448                       # Number of stores executed
system.switch_cpus1.iew.exec_swp                    0                       # number of swp insts executed
system.switch_cpus1.iew.iewBlockCycles       26330535                       # Number of cycles IEW is blocking
system.switch_cpus1.iew.iewDispLoadInsts     94534057                       # Number of dispatched load instructions
system.switch_cpus1.iew.iewDispNonSpecInsts            0                       # Number of dispatched non-speculative instructions
system.switch_cpus1.iew.iewDispSquashedInsts        84916                       # Number of squashed instructions skipped by dispatch
system.switch_cpus1.iew.iewDispStoreInsts     43398901                       # Number of dispatched store instructions
system.switch_cpus1.iew.iewDispatchedInsts    603617502                       # Number of instructions dispatched to IQ
system.switch_cpus1.iew.iewExecLoadInsts     82183079                       # Number of load instructions executed
system.switch_cpus1.iew.iewExecSquashedInsts      6769074                       # Number of squashed instructions skipped in execute
system.switch_cpus1.iew.iewExecutedInsts    512073241                       # Number of executed instructions
system.switch_cpus1.iew.iewIQFullEvents         46536                       # Number of times the IQ has become full, causing a stall
system.switch_cpus1.iew.iewIdleCycles               0                       # Number of cycles IEW is idle
system.switch_cpus1.iew.iewLSQFullEvents        50703                       # Number of times the LSQ has become full, causing a stall
system.switch_cpus1.iew.iewSquashCycles       3013397                       # Number of cycles IEW is squashing
system.switch_cpus1.iew.iewUnblockCycles       111246                       # Number of cycles IEW is unblocking
system.switch_cpus1.iew.memOrderViolationEvents       109926                       # Number of memory order violations
system.switch_cpus1.iew.predictedNotTakenIncorrect      1669033                       # Number of branches that were predicted not taken incorrectly
system.switch_cpus1.iew.predictedTakenIncorrect      1680941                       # Number of branches that were predicted taken incorrectly
system.switch_cpus1.iew.wb_consumers        664443361                       # num instructions consuming a value
system.switch_cpus1.iew.wb_count            509768271                       # cumulative count of insts written-back
system.switch_cpus1.iew.wb_fanout            0.583375                       # average fanout of values written-back
system.switch_cpus1.iew.wb_producers        387619663                       # num instructions producing a value
system.switch_cpus1.iew.wb_rate              2.775805                       # insts written-back per cycle
system.switch_cpus1.iew.wb_sent             511386224                       # cumulative count of insts sent to commit
system.switch_cpus1.int_regfile_reads       795642487                       # number of integer regfile reads
system.switch_cpus1.int_regfile_writes      434544438                       # number of integer regfile writes
system.switch_cpus1.ipc                      1.360953                       # IPC: Instructions Per Cycle
system.switch_cpus1.ipc_total                1.360953                       # IPC: Total IPC of All Threads
system.switch_cpus1.iq.FU_type_0::No_OpClass      1319047      0.25%      0.25% # Type of FU issued
system.switch_cpus1.iq.FU_type_0::IntAlu    392220185     75.60%     75.85% # Type of FU issued
system.switch_cpus1.iq.FU_type_0::IntMult      3432612      0.66%     76.51% # Type of FU issued
system.switch_cpus1.iq.FU_type_0::IntDiv       893544      0.17%     76.68% # Type of FU issued
system.switch_cpus1.iq.FU_type_0::FloatAdd            0      0.00%     76.68% # Type of FU issued
system.switch_cpus1.iq.FU_type_0::FloatCmp            0      0.00%     76.68% # Type of FU issued
system.switch_cpus1.iq.FU_type_0::FloatCvt            0      0.00%     76.68% # Type of FU issued
system.switch_cpus1.iq.FU_type_0::FloatMult            0      0.00%     76.68% # Type of FU issued
system.switch_cpus1.iq.FU_type_0::FloatMultAcc            0      0.00%     76.68% # Type of FU issued
system.switch_cpus1.iq.FU_type_0::FloatDiv            0      0.00%     76.68% # Type of FU issued
system.switch_cpus1.iq.FU_type_0::FloatMisc            0      0.00%     76.68% # Type of FU issued
system.switch_cpus1.iq.FU_type_0::FloatSqrt            0      0.00%     76.68% # Type of FU issued
system.switch_cpus1.iq.FU_type_0::SimdAdd            0      0.00%     76.68% # Type of FU issued
system.switch_cpus1.iq.FU_type_0::SimdAddAcc            0      0.00%     76.68% # Type of FU issued
system.switch_cpus1.iq.FU_type_0::SimdAlu            0      0.00%     76.68% # Type of FU issued
system.switch_cpus1.iq.FU_type_0::SimdCmp            0      0.00%     76.68% # Type of FU issued
system.switch_cpus1.iq.FU_type_0::SimdCvt            0      0.00%     76.68% # Type of FU issued
system.switch_cpus1.iq.FU_type_0::SimdMisc            0      0.00%     76.68% # Type of FU issued
system.switch_cpus1.iq.FU_type_0::SimdMult            0      0.00%     76.68% # Type of FU issued
system.switch_cpus1.iq.FU_type_0::SimdMultAcc            0      0.00%     76.68% # Type of FU issued
system.switch_cpus1.iq.FU_type_0::SimdShift            0      0.00%     76.68% # Type of FU issued
system.switch_cpus1.iq.FU_type_0::SimdShiftAcc            0      0.00%     76.68% # Type of FU issued
system.switch_cpus1.iq.FU_type_0::SimdDiv            0      0.00%     76.68% # Type of FU issued
system.switch_cpus1.iq.FU_type_0::SimdSqrt            0      0.00%     76.68% # Type of FU issued
system.switch_cpus1.iq.FU_type_0::SimdFloatAdd            0      0.00%     76.68% # Type of FU issued
system.switch_cpus1.iq.FU_type_0::SimdFloatAlu            0      0.00%     76.68% # Type of FU issued
system.switch_cpus1.iq.FU_type_0::SimdFloatCmp            0      0.00%     76.68% # Type of FU issued
system.switch_cpus1.iq.FU_type_0::SimdFloatCvt            0      0.00%     76.68% # Type of FU issued
system.switch_cpus1.iq.FU_type_0::SimdFloatDiv            0      0.00%     76.68% # Type of FU issued
system.switch_cpus1.iq.FU_type_0::SimdFloatMisc            0      0.00%     76.68% # Type of FU issued
system.switch_cpus1.iq.FU_type_0::SimdFloatMult            0      0.00%     76.68% # Type of FU issued
system.switch_cpus1.iq.FU_type_0::SimdFloatMultAcc            0      0.00%     76.68% # Type of FU issued
system.switch_cpus1.iq.FU_type_0::SimdFloatSqrt            0      0.00%     76.68% # Type of FU issued
system.switch_cpus1.iq.FU_type_0::SimdReduceAdd            0      0.00%     76.68% # Type of FU issued
system.switch_cpus1.iq.FU_type_0::SimdReduceAlu            0      0.00%     76.68% # Type of FU issued
system.switch_cpus1.iq.FU_type_0::SimdReduceCmp            0      0.00%     76.68% # Type of FU issued
system.switch_cpus1.iq.FU_type_0::SimdFloatReduceAdd            0      0.00%     76.68% # Type of FU issued
system.switch_cpus1.iq.FU_type_0::SimdFloatReduceCmp            0      0.00%     76.68% # Type of FU issued
system.switch_cpus1.iq.FU_type_0::SimdAes            0      0.00%     76.68% # Type of FU issued
system.switch_cpus1.iq.FU_type_0::SimdAesMix            0      0.00%     76.68% # Type of FU issued
system.switch_cpus1.iq.FU_type_0::SimdSha1Hash            0      0.00%     76.68% # Type of FU issued
[...]
system.switch_cpus3.commit.numCommittedDist::1     32282420     20.60%     50.99% # Number of insts commited each cycle
system.switch_cpus3.commit.numCommittedDist::2     17353586     11.07%     62.06% # Number of insts commited each cycle
system.switch_cpus3.commit.numCommittedDist::3     16221237     10.35%     72.41% # Number of insts commited each cycle
system.switch_cpus3.commit.numCommittedDist::4      8754761      5.59%     78.00% # Number of insts commited each cycle
system.switch_cpus3.commit.numCommittedDist::5      4363613      2.78%     80.79% # Number of insts commited each cycle
system.switch_cpus3.commit.numCommittedDist::6      3359369      2.14%     82.93% # Number of insts commited each cycle
system.switch_cpus3.commit.numCommittedDist::7      2535821      1.62%     84.55% # Number of insts commited each cycle
system.switch_cpus3.commit.numCommittedDist::8     24217435     15.45%    100.00% # Number of insts commited each cycle
system.switch_cpus3.commit.numCommittedDist::overflows            0      0.00%    100.00% # Number of insts commited each cycle
system.switch_cpus3.commit.numCommittedDist::min_value            0                       # Number of insts commited each cycle
system.switch_cpus3.commit.numCommittedDist::max_value            8                       # Number of insts commited each cycle
system.switch_cpus3.commit.numCommittedDist::total    156715720                       # Number of insts commited each cycle
system.switch_cpus3.commit.instsCommitted    250000003                       # Number of instructions committed
system.switch_cpus3.commit.opsCommitted     404136853                       # Number of ops (including micro ops) committed
system.switch_cpus3.commit.memRefs           93132163                       # Number of memory references committed
system.switch_cpus3.commit.loads             63251498                       # Number of loads committed
system.switch_cpus3.commit.amos                     0                       # Number of atomic instructions committed
system.switch_cpus3.commit.membars                  0                       # Number of memory barriers committed
system.switch_cpus3.commit.branches          36138620                       # Number of branches committed
system.switch_cpus3.commit.vector                   0                       # Number of committed Vector instructions.
system.switch_cpus3.commit.floating            459076                       # Number of committed floating point instructions.
system.switch_cpus3.commit.integer          402752495                       # Number of committed integer instructions.
system.switch_cpus3.commit.functionCalls      4796477                       # Number of function calls committed.
system.switch_cpus3.commit.committedInstType_0::No_OpClass       946322      0.23%      0.23% # Class of committed instruction
system.switch_cpus3.commit.committedInstType_0::IntAlu    305869986     75.68%     75.92% # Class of committed instruction
system.switch_cpus3.commit.committedInstType_0::IntMult      3318329      0.82%     76.74% # Class of committed instruction
system.switch_cpus3.commit.committedInstType_0::IntDiv       870053      0.22%     76.96% # Class of committed instruction
system.switch_cpus3.commit.committedInstType_0::FloatAdd            0      0.00%     76.96% # Class of committed instruction
system.switch_cpus3.commit.committedInstType_0::FloatCmp            0      0.00%     76.96% # Class of committed instruction
system.switch_cpus3.commit.committedInstType_0::FloatCvt            0      0.00%     76.96% # Class of committed instruction
system.switch_cpus3.commit.committedInstType_0::FloatMult            0      0.00%     76.96% # Class of committed instruction
system.switch_cpus3.commit.committedInstType_0::FloatMultAcc            0      0.00%     76.96% # Class of committed instruction
system.switch_cpus3.commit.committedInstType_0::FloatDiv            0      0.00%     76.96% # Class of committed instruction
system.switch_cpus3.commit.committedInstType_0::FloatMisc            0      0.00%     76.96% # Class of committed instruction
system.switch_cpus3.commit.committedInstType_0::FloatSqrt            0      0.00%     76.96% # Class of committed instruction
system.switch_cpus3.commit.committedInstType_0::SimdAdd            0      0.00%     76.96% # Class of committed instruction
system.switch_cpus3.commit.committedInstType_0::SimdAddAcc            0      0.00%     76.96% # Class of committed instruction
system.switch_cpus3.commit.committedInstType_0::SimdAlu            0      0.00%     76.96% # Class of committed instruction
system.switch_cpus3.commit.committedInstType_0::SimdCmp            0      0.00%     76.96% # Class of committed instruction
system.switch_cpus3.commit.committedInstType_0::SimdCvt            0      0.00%     76.96% # Class of committed instruction
system.switch_cpus3.commit.committedInstType_0::SimdMisc            0      0.00%     76.96% # Class of committed instruction
system.switch_cpus3.commit.committedInstType_0::SimdMult            0      0.00%     76.96% # Class of committed instruction
system.switch_cpus3.commit.committedInstType_0::SimdMultAcc            0      0.00%     76.96% # Class of committed instruction
system.switch_cpus3.commit.committedInstType_0::SimdShift            0      0.00%     76.96% # Class of committed instruction
system.switch_cpus3.commit.committedInstType_0::SimdShiftAcc            0      0.00%     76.96% # Class of committed instruction
system.switch_cpus3.commit.committedInstType_0::SimdDiv            0      0.00%     76.96% # Class of committed instruction
system.switch_cpus3.commit.committedInstType_0::SimdSqrt            0      0.00%     76.96% # Class of committed instruction
system.switch_cpus3.commit.committedInstType_0::SimdFloatAdd            0      0.00%     76.96% # Class of committed instruction
system.switch_cpus3.commit.committedInstType_0::SimdFloatAlu            0      0.00%     76.96% # Class of committed instruction
system.switch_cpus3.commit.committedInstType_0::SimdFloatCmp            0      0.00%     76.96% # Class of committed instruction
system.switch_cpus3.commit.committedInstType_0::SimdFloatCvt            0      0.00%     76.96% # Class of committed instruction
system.switch_cpus3.commit.committedInstType_0::SimdFloatDiv            0      0.00%     76.96% # Class of committed instruction
system.switch_cpus3.commit.committedInstType_0::SimdFloatMisc            0      0.00%     76.96% # Class of committed instruction
system.switch_cpus3.commit.committedInstType_0::SimdFloatMult            0      0.00%     76.96% # Class of committed instruction
system.switch_cpus3.commit.committedInstType_0::SimdFloatMultAcc            0      0.00%     76.96% # Class of committed instruction
system.switch_cpus3.commit.committedInstType_0::SimdFloatSqrt            0      0.00%     76.96% # Class of committed instruction
system.switch_cpus3.commit.committedInstType_0::SimdReduceAdd            0      0.00%     76.96% # Class of committed instruction
system.switch_cpus3.commit.committedInstType_0::SimdReduceAlu            0      0.00%     76.96% # Class of committed instruction
system.switch_cpus3.commit.committedInstType_0::SimdReduceCmp            0      0.00%     76.96% # Class of committed instruction
system.switch_cpus3.commit.committedInstType_0::SimdFloatReduceAdd            0      0.00%     76.96% # Class of committed instruction
system.switch_cpus3.commit.committedInstType_0::SimdFloatReduceCmp            0      0.00%     76.96% # Class of committed instruction
system.switch_cpus3.commit.committedInstType_0::SimdAes            0      0.00%     76.96% # Class of committed instruction
system.switch_cpus3.commit.committedInstType_0::SimdAesMix            0      0.00%     76.96% # Class of committed instruction
system.switch_cpus3.commit.committedInstType_0::SimdSha1Hash            0      0.00%     76.96% # Class of committed instruction
system.switch_cpus3.commit.committedInstType_0::SimdSha1Hash2            0      0.00%     76.96% # Class of committed instruction
system.switch_cpus3.commit.committedInstType_0::SimdSha256Hash            0      0.00%     76.96% # Class of committed instruction
system.switch_cpus3.commit.committedInstType_0::SimdSha256Hash2            0      0.00%     76.96% # Class of committed instruction
system.switch_cpus3.commit.committedInstType_0::SimdShaSigma2            0      0.00%     76.96% # Class of committed instruction
system.switch_cpus3.commit.committedInstType_0::SimdShaSigma3            0      0.00%     76.96% # Class of committed instruction
system.switch_cpus3.commit.committedInstType_0::SimdPredAlu            0      0.00%     76.96% # Class of committed instruction
system.switch_cpus3.commit.committedInstType_0::MemRead     63021960     15.59%     92.55% # Class of committed instruction
system.switch_cpus3.commit.committedInstType_0::MemWrite     29651127      7.34%     99.89% # Class of committed instruction
system.switch_cpus3.commit.committedInstType_0::FloatMemRead       229538      0.06%     99.94% # Class of committed instruction
system.switch_cpus3.commit.committedInstType_0::FloatMemWrite       229538      0.06%    100.00% # Class of committed instruction
system.switch_cpus3.commit.committedInstType_0::IprAccess            0      0.00%    100.00% # Class of committed instruction
system.switch_cpus3.commit.committedInstType_0::InstPrefetch            0      0.00%    100.00% # Class of committed instruction
system.switch_cpus3.commit.committedInstType_0::total    404136853                       # Class of committed instruction
system.switch_cpus3.commit.commitEligibleSamples     24217435                       # number cycles where commit BW limit reached
system.switch_cpus3.decode.idleCycles        17775427                       # Number of cycles decode is idle
system.switch_cpus3.decode.blockedCycles     72130021                       # Number of cycles decode is blocked
system.switch_cpus3.decode.runCycles         68518749                       # Number of cycles decode is running
system.switch_cpus3.decode.unblockCycles     22080750                       # Number of cycles decode is unblocking
system.switch_cpus3.decode.squashCycles       3013684                       # Number of cycles decode is squashing
system.switch_cpus3.decode.branchResolved     30467126                       # Number of times decode resolved a  branch
system.switch_cpus3.decode.branchMispred       254233                       # Number of times decode detected a branch misprediction
system.switch_cpus3.decode.decodedInsts     651862846                       # Number of instructions handled by decode
system.switch_cpus3.decode.squashedInsts      1164123                       # Number of squashed instructions handled by decode
system.switch_cpus3.dtb.rdAccesses           82203399                       # TLB accesses on read requests
system.switch_cpus3.dtb.wrAccesses           36237583                       # TLB accesses on write requests
system.switch_cpus3.dtb.rdMisses                57730                       # TLB misses on read requests
system.switch_cpus3.dtb.wrMisses                 1473                       # TLB misses on write requests
system.switch_cpus3.dtb.walker.power_state.pwrStateResidencyTicks::UNDEFINED 16607537132373                       # Cumulative time (in ticks) in various power states
system.switch_cpus3.fetch.icacheStallCycles      5120876                       # Number of cycles fetch is stalled on an Icache miss
system.switch_cpus3.fetch.insts             443728924                       # Number of instructions fetch has processed
system.switch_cpus3.fetch.branches           65113891                       # Number of branches that fetch encountered
system.switch_cpus3.fetch.predictedBranches     41414225                       # Number of branches that fetch has predicted taken
system.switch_cpus3.fetch.cycles            175135381                       # Number of cycles fetch has run and was not squashing or blocked
system.switch_cpus3.fetch.squashCycles        6524430                       # Number of cycles fetch has spent squashing
system.switch_cpus3.fetch.miscStallCycles           22                       # Number of cycles fetch has spent waiting on interrupts,or bad addresses, or out of MSHRs
system.switch_cpus3.fetch.pendingTrapStallCycles          140                       # Number of stall cycles due to pending traps
system.switch_cpus3.fetch.cacheLines         66245013                       # Number of cache lines fetched
system.switch_cpus3.fetch.icacheSquashes        68253                       # Number of outstanding Icache misses that were squashed
system.switch_cpus3.fetch.nisnDist::samples    183518634                       # Number of instructions fetched each cycle (Total)
system.switch_cpus3.fetch.nisnDist::mean     3.899498                       # Number of instructions fetched each cycle (Total)
system.switch_cpus3.fetch.nisnDist::stdev     3.361260                       # Number of instructions fetched each cycle (Total)
system.switch_cpus3.fetch.nisnDist::underflows            0      0.00%      0.00% # Number of instructions fetched each cycle (Total)
system.switch_cpus3.fetch.nisnDist::0        60049624     32.72%     32.72% # Number of instructions fetched each cycle (Total)
system.switch_cpus3.fetch.nisnDist::1         9084413      4.95%     37.67% # Number of instructions fetched each cycle (Total)
system.switch_cpus3.fetch.nisnDist::2         8909263      4.85%     42.53% # Number of instructions fetched each cycle (Total)
system.switch_cpus3.fetch.nisnDist::3         8277939      4.51%     47.04% # Number of instructions fetched each cycle (Total)
system.switch_cpus3.fetch.nisnDist::4         9162533      4.99%     52.03% # Number of instructions fetched each cycle (Total)
system.switch_cpus3.fetch.nisnDist::5        16618965      9.06%     61.09% # Number of instructions fetched each cycle (Total)
system.switch_cpus3.fetch.nisnDist::6         9883254      5.39%     66.47% # Number of instructions fetched each cycle (Total)
system.switch_cpus3.fetch.nisnDist::7         7411834      4.04%     70.51% # Number of instructions fetched each cycle (Total)
system.switch_cpus3.fetch.nisnDist::8        54120809     29.49%    100.00% # Number of instructions fetched each cycle (Total)
system.switch_cpus3.fetch.nisnDist::overflows            0      0.00%    100.00% # Number of instructions fetched each cycle (Total)
system.switch_cpus3.fetch.nisnDist::min_value            0                       # Number of instructions fetched each cycle (Total)
system.switch_cpus3.fetch.nisnDist::max_value            8                       # Number of instructions fetched each cycle (Total)
system.switch_cpus3.fetch.nisnDist::total    183518634                       # Number of instructions fetched each cycle (Total)
system.switch_cpus3.fetch.branchRate         0.354560                       # Number of branch fetches per cycle
system.switch_cpus3.fetch.rate               2.416205                       # Number of inst fetches per cycle
system.switch_cpus3.itb.rdAccesses                  0                       # TLB accesses on read requests
system.switch_cpus3.itb.wrAccesses           66245035                       # TLB accesses on write requests
system.switch_cpus3.itb.rdMisses                    0                       # TLB misses on read requests
system.switch_cpus3.itb.wrMisses                   48                       # TLB misses on write requests
system.switch_cpus3.itb.walker.power_state.pwrStateResidencyTicks::UNDEFINED 16607537132373                       # Cumulative time (in ticks) in various power states
system.switch_cpus3.lsq0.forwLoads           13321668                       # Number of loads that had data forwarded from stores
system.switch_cpus3.lsq0.squashedLoads       31299853                       # Number of loads squashed
system.switch_cpus3.lsq0.ignoredResponses        50534                       # Number of memory responses ignored because the instruction is squashed
system.switch_cpus3.lsq0.memOrderViolation       109615                       # Number of memory ordering violations
system.switch_cpus3.lsq0.squashedStores      13524098                       # Number of stores squashed
system.switch_cpus3.lsq0.rescheduledLoads         4005                       # Number of loads that were rescheduled
system.switch_cpus3.lsq0.blockedByCache             0                       # Number of times an access to memory failed due to the cache being blocked
system.switch_cpus3.power_state.pwrStateResidencyTicks::OFF  61154471313                       # Cumulative time (in ticks) in various power states
system.switch_cpus3.rename.squashCycles       3013684                       # Number of cycles rename is squashing
system.switch_cpus3.rename.idleCycles        26823404                       # Number of cycles rename is idle
system.switch_cpus3.rename.blockCycles       40289926                       # Number of cycles rename is blocking
system.switch_cpus3.rename.serializeStallCycles            0                       # count of cycles rename stalledfor serializing inst
system.switch_cpus3.rename.runCycles         81127606                       # Number of cycles rename is running
system.switch_cpus3.rename.unblockCycles     32264011                       # Number of cycles rename is unblocking
system.switch_cpus3.rename.renamedInsts     634245584                       # Number of instructions processed by rename
system.switch_cpus3.rename.ROBFullEvents       875932                       # Number of times rename has blocked due to ROB full
system.switch_cpus3.rename.IQFullEvents      25421430                       # Number of times rename has blocked due to IQ full
system.switch_cpus3.rename.LQFullEvents       1718393                       # Number of times rename has blocked due to LQ full
system.switch_cpus3.rename.SQFullEvents        268228                       # Number of times rename has blocked due to SQ full
system.switch_cpus3.rename.fullRegistersEvents           48                       # Number of times there has been no free registers
system.switch_cpus3.rename.renamedOperands    817173409                       # Number of destination operands rename has renamed
system.switch_cpus3.rename.lookups         1623429392                       # Number of register rename lookups that rename has made
system.switch_cpus3.rename.intLookups      1037880801                       # Number of integer rename lookups
system.switch_cpus3.rename.fpLookups           324262                       # Number of floating rename lookups
system.switch_cpus3.rename.committedMaps    521179471                       # Number of HB maps that are committed
system.switch_cpus3.rename.undoneMaps       295993831                       # Number of HB maps that are undone due to squashing
system.switch_cpus3.rename.serializing              0                       # count of serializing insts renamed
system.switch_cpus3.rename.tempSerializing            0                       # count of temporary serializing insts renamed
system.switch_cpus3.rename.skidInsts         84114340                       # count of insts added to the skid buffer
system.switch_cpus3.rob.reads               736230724                       # The number of ROB reads
system.switch_cpus3.rob.writes             1234342790                       # The number of ROB writes
system.switch_cpus3.thread0.numInsts        250000003                       # Number of Instructions committed
system.switch_cpus3.thread0.numOps          404136853                       # Number of Ops committed
system.switch_cpus3.thread0.numMemRefs              0                       # Number of Memory References
system.voltage_domain.voltage                       1                       # Voltage in Volts

---------- End Simulation Statistics   ----------
