Command line:
./runscript_pride.sh xz AE.BASELINE.4C 4 2017
Global frequency set at 1000000000000 ticks per second
DRAM config: RowsPerBank: 65536, BanksPerRank: 32, RanksPerChannel: 1
warn: Sockets disabled, not accepting gdb connections
warn: CoherentXBar system.cpu0.mmucache.mmubus has no snooping ports attached!
warn: CoherentXBar system.cpu1.mmucache.mmubus has no snooping ports attached!
warn: CoherentXBar system.cpu2.mmucache.mmubus has no snooping ports attached!
warn: CoherentXBar system.cpu3.mmucache.mmubus has no snooping ports attached!
warn: Checkpoints for file descriptors currently do not work.
warn: Checkpoints for file descriptors currently do not work.
warn: Checkpoints for file descriptors currently do not work.
warn: Checkpoints for file descriptors currently do not work.
gem5 Simulator System.  http://gem5.org
gem5 is copyrighted software; use the --copyright option for details.

gem5 version 20.1.0.5
gem5 compiled Jul 12 2024 12:42:38
gem5 started Jul 31 2024 03:21:19
gem5 executing on a07dda8b130c, pid 225823
command line: /home/user/PrIDE/performance/gem5/build/X86/gem5.opt --outdir=/home/user/PrIDE/performance/gem5/stats/pride_multiprogram_16GBmem_250Mn.SPEC2017.C4/AE.BASELINE.4C/xz /home/user/PrIDE/performance/gem5/configs/example/se_rq_spec_config_multicore.py --redirects /lib64=/home/utils/gcc-6.2.0/lib64 --benchmark=xz --benchmark_stdout=/home/user/PrIDE/performance/gem5/stats/pride_multiprogram_16GBmem_250Mn.SPEC2017.C4/AE.BASELINE.4C/xz/xz.out --benchmark_stderr=/home/user/PrIDE/performance/gem5/stats/pride_multiprogram_16GBmem_250Mn.SPEC2017.C4/AE.BASELINE.4C/xz/xz.err --spec-version=2017 --num-cpus=4 --mem-size=16GB --mem-type=DDR5_2400_32x4 --mem-ranks=1 --mem-channels=1 --checkpoint-dir=/home/user/PrIDE/performance/gem5/cpts-DDR5/multiprogram_16GBmem_25Bn.SPEC2017.C4/xz-1-ref-x86 --checkpoint-restore=25000000000 --at-instruction --cpu-type DerivO3CPU --caches --l2cache --l1d_size=32kB --l1i_size=32kB --l2_size=256kB --l3_size=4MB --l1d_assoc=8 --l1i_assoc=8 --l2_assoc=16 --l3_assoc=16 --cpu-clock=3GHz --sys-clock=3GHz --maxinsts=250000000 --prog-interval=300Hz

info: Standard input is not a terminal, disabling listeners.
Benchmark- 0   xz
Selected benchmark
--> xz
CMD: ['/opt/spec2017/benchspec/CPU/557.xz_r/run/run_base_refrate_gem5_se-m64.0000/xz_r_base.gem5_se-m64', '/opt/spec2017/benchspec/CPU/557.xz_r/run/run_base_refrate_gem5_se-m64.0000/cld.tar.xz', '160', '19cf30ae51eddcbefda78dd06014b4b96281456e078ca7c13e1c0c9e6aaea8dff3efb4ad6b0456697718cede6bd5454852652806a657bb56e07d61128434b474', '59796407', '61004416', '6']
CWD: /opt/spec2017/benchspec/CPU/557.xz_r/run/run_base_refrate_gem5_se-m64.0000/
Process stdout file: /home/user/PrIDE/performance/gem5/stats/pride_multiprogram_16GBmem_250Mn.SPEC2017.C4/AE.BASELINE.4C/xz/xz.out_0
Process stderr file: /home/user/PrIDE/performance/gem5/stats/pride_multiprogram_16GBmem_250Mn.SPEC2017.C4/AE.BASELINE.4C/xz/xz.err_0
Benchmark- 1   xz
Selected benchmark
--> xz
CMD: ['/opt/spec2017/benchspec/CPU/557.xz_r/run/run_base_refrate_gem5_se-m64.0000/xz_r_base.gem5_se-m64', '/opt/spec2017/benchspec/CPU/557.xz_r/run/run_base_refrate_gem5_se-m64.0000/cld.tar.xz', '160', '19cf30ae51eddcbefda78dd06014b4b96281456e078ca7c13e1c0c9e6aaea8dff3efb4ad6b0456697718cede6bd5454852652806a657bb56e07d61128434b474', '59796407', '61004416', '6']
CWD: /opt/spec2017/benchspec/CPU/557.xz_r/run/run_base_refrate_gem5_se-m64.0000/
Process stdout file: /home/user/PrIDE/performance/gem5/stats/pride_multiprogram_16GBmem_250Mn.SPEC2017.C4/AE.BASELINE.4C/xz/xz.out_1
Process stderr file: /home/user/PrIDE/performance/gem5/stats/pride_multiprogram_16GBmem_250Mn.SPEC2017.C4/AE.BASELINE.4C/xz/xz.err_1
Benchmark- 2   xz
Selected benchmark
--> xz
CMD: ['/opt/spec2017/benchspec/CPU/557.xz_r/run/run_base_refrate_gem5_se-m64.0000/xz_r_base.gem5_se-m64', '/opt/spec2017/benchspec/CPU/557.xz_r/run/run_base_refrate_gem5_se-m64.0000/cld.tar.xz', '160', '19cf30ae51eddcbefda78dd06014b4b96281456e078ca7c13e1c0c9e6aaea8dff3efb4ad6b0456697718cede6bd5454852652806a657bb56e07d61128434b474', '59796407', '61004416', '6']
CWD: /opt/spec2017/benchspec/CPU/557.xz_r/run/run_base_refrate_gem5_se-m64.0000/
Process stdout file: /home/user/PrIDE/performance/gem5/stats/pride_multiprogram_16GBmem_250Mn.SPEC2017.C4/AE.BASELINE.4C/xz/xz.out_2
Process stderr file: /home/user/PrIDE/performance/gem5/stats/pride_multiprogram_16GBmem_250Mn.SPEC2017.C4/AE.BASELINE.4C/xz/xz.err_2
Benchmark- 3   xz
Selected benchmark
--> xz
CMD: ['/opt/spec2017/benchspec/CPU/557.xz_r/run/run_base_refrate_gem5_se-m64.0000/xz_r_base.gem5_se-m64', '/opt/spec2017/benchspec/CPU/557.xz_r/run/run_base_refrate_gem5_se-m64.0000/cld.tar.xz', '160', '19cf30ae51eddcbefda78dd06014b4b96281456e078ca7c13e1c0c9e6aaea8dff3efb4ad6b0456697718cede6bd5454852652806a657bb56e07d61128434b474', '59796407', '61004416', '6']
CWD: /opt/spec2017/benchspec/CPU/557.xz_r/run/run_base_refrate_gem5_se-m64.0000/
Process stdout file: /home/user/PrIDE/performance/gem5/stats/pride_multiprogram_16GBmem_250Mn.SPEC2017.C4/AE.BASELINE.4C/xz/xz.out_3
Process stderr file: /home/user/PrIDE/performance/gem5/stats/pride_multiprogram_16GBmem_250Mn.SPEC2017.C4/AE.BASELINE.4C/xz/xz.err_3
Workload-0: 
['/opt/spec2017/benchspec/CPU/557.xz_r/run/run_base_refrate_gem5_se-m64.0000/xz_r_base.gem5_se-m64', '/opt/spec2017/benchspec/CPU/557.xz_r/run/run_base_refrate_gem5_se-m64.0000/cld.tar.xz', '160', '19cf30ae51eddcbefda78dd06014b4b96281456e078ca7c13e1c0c9e6aaea8dff3efb4ad6b0456697718cede6bd5454852652806a657bb56e07d61128434b474', '59796407', '61004416', '6']
Workload-1: 
['/opt/spec2017/benchspec/CPU/557.xz_r/run/run_base_refrate_gem5_se-m64.0000/xz_r_base.gem5_se-m64', '/opt/spec2017/benchspec/CPU/557.xz_r/run/run_base_refrate_gem5_se-m64.0000/cld.tar.xz', '160', '19cf30ae51eddcbefda78dd06014b4b96281456e078ca7c13e1c0c9e6aaea8dff3efb4ad6b0456697718cede6bd5454852652806a657bb56e07d61128434b474', '59796407', '61004416', '6']
Workload-2: 
['/opt/spec2017/benchspec/CPU/557.xz_r/run/run_base_refrate_gem5_se-m64.0000/xz_r_base.gem5_se-m64', '/opt/spec2017/benchspec/CPU/557.xz_r/run/run_base_refrate_gem5_se-m64.0000/cld.tar.xz', '160', '19cf30ae51eddcbefda78dd06014b4b96281456e078ca7c13e1c0c9e6aaea8dff3efb4ad6b0456697718cede6bd5454852652806a657bb56e07d61128434b474', '59796407', '61004416', '6']
Workload-3: 
['/opt/spec2017/benchspec/CPU/557.xz_r/run/run_base_refrate_gem5_se-m64.0000/xz_r_base.gem5_se-m64', '/opt/spec2017/benchspec/CPU/557.xz_r/run/run_base_refrate_gem5_se-m64.0000/cld.tar.xz', '160', '19cf30ae51eddcbefda78dd06014b4b96281456e078ca7c13e1c0c9e6aaea8dff3efb4ad6b0456697718cede6bd5454852652806a657bb56e07d61128434b474', '59796407', '61004416', '6']
defense_enable:  False  detector:  MG  mitigation:  RRS  threshold:  800
mg_entries:  1700
rrs_tuples:  3400 rrs_swap_delay:  2740ns rit_acc_delay:  1.25ns
Switch at curTick count:10000
warn: membus.master is deprecated. `master` is now called `mem_side_ports`
warn: No dot file generated. Please install pydot to generate the dot file and pdf.
info: Entering event queue @ 14950446118803.  Starting simulation...
warn: MOVNTDQ: Ignoring non-temporal hint, modeling as cacheable!
warn: PowerState: Already in the requested power state, request ignored
Switched CPUS @ tick 14950446128803
switching cpus
**** REAL SIMULATION ****
info: Entering event queue @ 14950446128803.  Starting simulation...
14953779452136: Event_285: system.switch_cpus3 progress event, total committed:16318918, progress insts committed: 16318918, IPC: 01.63026
14953779452136: Event_284: system.switch_cpus2 progress event, total committed:16318921, progress insts committed: 16318921, IPC: 01.63026
14953779452136: Event_283: system.switch_cpus1 progress event, total committed:16319878, progress insts committed: 16319878, IPC: 01.63036
14953779452136: Event_282: system.switch_cpus0 progress event, total committed:16319878, progress insts committed: 16319878, IPC: 01.63036
14957112785469: Event_282: system.switch_cpus0 progress event, total committed:32980936, progress insts committed: 16661058, IPC: 01.66444
14957112785469: Event_283: system.switch_cpus1 progress event, total committed:32980895, progress insts committed: 16661017, IPC: 01.66444
14957112785469: Event_284: system.switch_cpus2 progress event, total committed:32944427, progress insts committed: 16625506, IPC: 01.66089
14957112785469: Event_285: system.switch_cpus3 progress event, total committed:32944423, progress insts committed: 16625505, IPC: 01.66089
14960446118802: Event_285: system.switch_cpus3 progress event, total committed:49684731, progress insts committed: 16740308, IPC: 01.67236
14960446118802: Event_284: system.switch_cpus2 progress event, total committed:49684736, progress insts committed: 16740309, IPC: 01.67236
14960446118802: Event_283: system.switch_cpus1 progress event, total committed:49705259, progress insts committed: 16724364, IPC: 01.67076
14960446118802: Event_282: system.switch_cpus0 progress event, total committed:49705255, progress insts committed: 16724319, IPC: 01.67076
14963779452135: Event_282: system.switch_cpus0 progress event, total committed:66386187, progress insts committed: 16680932, IPC: 01.66643
14963779452135: Event_283: system.switch_cpus1 progress event, total committed:66386169, progress insts committed: 16680910, IPC: 01.66642
14963779452135: Event_284: system.switch_cpus2 progress event, total committed:66344841, progress insts committed: 16660105, IPC: 01.66434
14963779452135: Event_285: system.switch_cpus3 progress event, total committed:66344873, progress insts committed: 16660142, IPC: 01.66435
14967112785468: Event_285: system.switch_cpus3 progress event, total committed:82905352, progress insts committed: 16560479, IPC: 01.65439
14967112785468: Event_284: system.switch_cpus2 progress event, total committed:82905323, progress insts committed: 16560482, IPC: 01.65439
14967112785468: Event_283: system.switch_cpus1 progress event, total committed:82918640, progress insts committed: 16532471, IPC: 01.65159
14967112785468: Event_282: system.switch_cpus0 progress event, total committed:82918640, progress insts committed: 16532453, IPC: 01.65159
14970446118801: Event_282: system.switch_cpus0 progress event, total committed:99552419, progress insts committed: 16633779, IPC: 01.66171
14970446118801: Event_283: system.switch_cpus1 progress event, total committed:99552451, progress insts committed: 16633811, IPC: 01.66172
14970446118801: Event_284: system.switch_cpus2 progress event, total committed:99424666, progress insts committed: 16519343, IPC: 01.65028
14970446118801: Event_285: system.switch_cpus3 progress event, total committed:99424620, progress insts committed: 16519268, IPC: 01.65027
14973779452134: Event_285: system.switch_cpus3 progress event, total committed:115813833, progress insts committed: 16389213, IPC: 01.63728
14973779452134: Event_284: system.switch_cpus2 progress event, total committed:115813797, progress insts committed: 16389131, IPC: 01.63727
14973779452134: Event_283: system.switch_cpus1 progress event, total committed:115945533, progress insts committed: 16393082, IPC: 01.63767
14973779452134: Event_282: system.switch_cpus0 progress event, total committed:115945474, progress insts committed: 16393055, IPC: 01.63767
14977112785467: Event_282: system.switch_cpus0 progress event, total committed:132368042, progress insts committed: 16422568, IPC: 01.64061
14977112785467: Event_283: system.switch_cpus1 progress event, total committed:132367103, progress insts committed: 16421570, IPC: 01.64051
14977112785467: Event_284: system.switch_cpus2 progress event, total committed:132239586, progress insts committed: 16425789, IPC: 01.64094
14977112785467: Event_285: system.switch_cpus3 progress event, total committed:132239547, progress insts committed: 16425714, IPC: 01.64093
14980446118800: Event_285: system.switch_cpus3 progress event, total committed:148630514, progress insts committed: 16390967, IPC: 01.63746
14980446118800: Event_284: system.switch_cpus2 progress event, total committed:148630533, progress insts committed: 16390947, IPC: 01.63746
14980446118800: Event_283: system.switch_cpus1 progress event, total committed:148753173, progress insts committed: 16386070, IPC: 01.63697
14980446118800: Event_282: system.switch_cpus0 progress event, total committed:148752885, progress insts committed: 16384843, IPC: 01.63685
14983779452133: Event_282: system.switch_cpus0 progress event, total committed:165168146, progress insts committed: 16415261, IPC: 01.63988
14983779452133: Event_283: system.switch_cpus1 progress event, total committed:165168199, progress insts committed: 16415026, IPC: 01.63986
14983779452133: Event_284: system.switch_cpus2 progress event, total committed:165032481, progress insts committed: 16401948, IPC: 01.63855
14983779452133: Event_285: system.switch_cpus3 progress event, total committed:165032442, progress insts committed: 16401928, IPC: 01.63855
14987112785466: Event_285: system.switch_cpus3 progress event, total committed:181479198, progress insts committed: 16446756, IPC: 01.64303
14987112785466: Event_284: system.switch_cpus2 progress event, total committed:181476598, progress insts committed: 16444117, IPC: 01.64277
14987112785466: Event_283: system.switch_cpus1 progress event, total committed:181633013, progress insts committed: 16464814, IPC: 01.64483
14987112785466: Event_282: system.switch_cpus0 progress event, total committed:181633158, progress insts committed: 16465012, IPC: 01.64485
14990446118799: Event_282: system.switch_cpus0 progress event, total committed:198043647, progress insts committed: 16410489, IPC: 01.63941
14990446118799: Event_283: system.switch_cpus1 progress event, total committed:198043614, progress insts committed: 16410601, IPC: 01.63942
14990446118799: Event_284: system.switch_cpus2 progress event, total committed:197868466, progress insts committed: 16391868, IPC: 01.63755
14990446118799: Event_285: system.switch_cpus3 progress event, total committed:197868487, progress insts committed: 16389289, IPC: 01.63729
14993779452132: Event_285: system.switch_cpus3 progress event, total committed:214419536, progress insts committed: 16551049, IPC: 01.65345
14993779452132: Event_284: system.switch_cpus2 progress event, total committed:214419587, progress insts committed: 16551121, IPC: 01.65346
14993779452132: Event_283: system.switch_cpus1 progress event, total committed:214545236, progress insts committed: 16501622, IPC: 01.64851
14993779452132: Event_282: system.switch_cpus0 progress event, total committed:214545182, progress insts committed: 16501535, IPC: 001.6485
14997112785465: Event_282: system.switch_cpus0 progress event, total committed:230987363, progress insts committed: 16442181, IPC: 01.64257
14997112785465: Event_283: system.switch_cpus1 progress event, total committed:230987367, progress insts committed: 16442131, IPC: 01.64257
14997112785465: Event_284: system.switch_cpus2 progress event, total committed:230859308, progress insts committed: 16439721, IPC: 01.64233
14997112785465: Event_285: system.switch_cpus3 progress event, total committed:230859316, progress insts committed: 16439780, IPC: 01.64233
15000446118798: Event_285: system.switch_cpus3 progress event, total committed:247417580, progress insts committed: 16558264, IPC: 01.65417
15000446118798: Event_284: system.switch_cpus2 progress event, total committed:247417547, progress insts committed: 16558239, IPC: 01.65417
15000446118798: Event_283: system.switch_cpus1 progress event, total committed:247469003, progress insts committed: 16481636, IPC: 01.64652
15000446118798: Event_282: system.switch_cpus0 progress event, total committed:247468985, progress insts committed: 16481622, IPC: 01.64651
15003779452131: Event_282: system.switch_cpus0 progress event, total committed:263914590, progress insts committed: 16445605, IPC: 01.64292
15003779452131: Event_283: system.switch_cpus1 progress event, total committed:263914594, progress insts committed: 16445591, IPC: 01.64291
15003779452131: Event_284: system.switch_cpus2 progress event, total committed:263806426, progress insts committed: 16388879, IPC: 01.63725
15003779452131: Event_285: system.switch_cpus3 progress event, total committed:263806426, progress insts committed: 16388846, IPC: 01.63725
15007112785464: Event_285: system.switch_cpus3 progress event, total committed:280183440, progress insts committed: 16377014, IPC: 01.63606
15007112785464: Event_284: system.switch_cpus2 progress event, total committed:280183449, progress insts committed: 16377023, IPC: 01.63606
15007112785464: Event_283: system.switch_cpus1 progress event, total committed:280306202, progress insts committed: 16391608, IPC: 01.63752
15007112785464: Event_282: system.switch_cpus0 progress event, total committed:280306172, progress insts committed: 16391582, IPC: 01.63752
15010446118797: Event_282: system.switch_cpus0 progress event, total committed:296819727, progress insts committed: 16513555, IPC: 001.6497
15010446118797: Event_283: system.switch_cpus1 progress event, total committed:296819727, progress insts committed: 16513525, IPC: 001.6497
15010446118797: Event_284: system.switch_cpus2 progress event, total committed:296721116, progress insts committed: 16537667, IPC: 01.65211
15010446118797: Event_285: system.switch_cpus3 progress event, total committed:296718406, progress insts committed: 16534966, IPC: 01.65184
15013779452130: Event_285: system.switch_cpus3 progress event, total committed:313263871, progress insts committed: 16545465, IPC: 01.65289
15013779452130: Event_284: system.switch_cpus2 progress event, total committed:313263903, progress insts committed: 16542787, IPC: 01.65262
15013779452130: Event_283: system.switch_cpus1 progress event, total committed:313354758, progress insts committed: 16535031, IPC: 01.65185
15013779452130: Event_282: system.switch_cpus0 progress event, total committed:313354784, progress insts committed: 16535057, IPC: 01.65185
15017112785463: Event_282: system.switch_cpus0 progress event, total committed:329855851, progress insts committed: 16501067, IPC: 01.64846
15017112785463: Event_283: system.switch_cpus1 progress event, total committed:329855796, progress insts committed: 16501038, IPC: 01.64845
15017112785463: Event_284: system.switch_cpus2 progress event, total committed:329700701, progress insts committed: 16436798, IPC: 01.64204
15017112785463: Event_285: system.switch_cpus3 progress event, total committed:329700696, progress insts committed: 16436825, IPC: 01.64204
15020446118796: Event_285: system.switch_cpus3 progress event, total committed:346213209, progress insts committed: 16512513, IPC: 001.6496
15020446118796: Event_284: system.switch_cpus2 progress event, total committed:346213192, progress insts committed: 16512491, IPC: 001.6496
15020446118796: Event_283: system.switch_cpus1 progress event, total committed:346361156, progress insts committed: 16505360, IPC: 01.64889
15020446118796: Event_282: system.switch_cpus0 progress event, total committed:346361159, progress insts committed: 16505308, IPC: 01.64888
15023779452129: Event_282: system.switch_cpus0 progress event, total committed:362710015, progress insts committed: 16348856, IPC: 01.63325
15023779452129: Event_283: system.switch_cpus1 progress event, total committed:362710019, progress insts committed: 16348863, IPC: 01.63325
15023779452129: Event_284: system.switch_cpus2 progress event, total committed:362565084, progress insts committed: 16351892, IPC: 01.63355
15023779452129: Event_285: system.switch_cpus3 progress event, total committed:362565108, progress insts committed: 16351899, IPC: 01.63355
Exiting @ tick 15023786070438 because a thread reached the max instruction count
