
---------- Begin Simulation Statistics ----------
final_tick                               15023786070438                       # Number of ticks from beginning of simulation (restored from checkpoints and never reset)
host_inst_rate                                 156045                       # Simulator instruction rate (inst/s)
host_mem_usage                               17423528                       # Number of bytes of host memory used
host_op_rate                                   226418                       # Simulator op (including micro ops) rate (op/s)
host_seconds                                  6407.14                       # Real time elapsed on the host
host_tick_rate                               11446602                       # Simulator tick rate (ticks/s)
sim_freq                                 1000000000000                       # Frequency of simulated ticks
sim_insts                                   999800557                       # Number of instructions simulated
sim_ops                                    1450690563                       # Number of ops (including micro ops) simulated
sim_seconds                                  0.073340                       # Number of seconds simulated
sim_ticks                                 73339951635                       # Number of ticks simulated
system.cpu0.Branches                                1                       # Number of branches fetched
system.cpu0.committedInsts                         11                       # Number of instructions committed
system.cpu0.committedOps                           23                       # Number of ops (including micro ops) committed
system.cpu0.idle_fraction                           0                       # Percentage of idle cycles
system.cpu0.l2bus.snoop_filter.hit_multi_requests          301                       # Number of requests hitting in the snoop filter with multiple (>1) holders of the requested data.
system.cpu0.l2bus.snoop_filter.hit_multi_snoops            0                       # Number of snoops hitting in the snoop filter with multiple (>1) holders of the requested data.
system.cpu0.l2bus.snoop_filter.hit_single_requests       226936                       # Number of requests hitting in the snoop filter with a single holder of the requested data.
system.cpu0.l2bus.snoop_filter.hit_single_snoops          322                       # Number of snoops hitting in the snoop filter with a single holder of the requested data.
system.cpu0.l2bus.snoop_filter.tot_requests       454230                       # Total number of requests made to the snoop filter.
system.cpu0.l2bus.snoop_filter.tot_snoops          322                       # Total number of snoops made to the snoop filter.
system.cpu0.mmucache.mmubus.snoop_filter.hit_multi_requests            0                       # Number of requests hitting in the snoop filter with multiple (>1) holders of the requested data.
system.cpu0.mmucache.mmubus.snoop_filter.hit_multi_snoops            0                       # Number of snoops hitting in the snoop filter with multiple (>1) holders of the requested data.
system.cpu0.mmucache.mmubus.snoop_filter.hit_single_requests            0                       # Number of requests hitting in the snoop filter with a single holder of the requested data.
system.cpu0.mmucache.mmubus.snoop_filter.hit_single_snoops            0                       # Number of snoops hitting in the snoop filter with a single holder of the requested data.
system.cpu0.mmucache.mmubus.snoop_filter.tot_requests            0                       # Total number of requests made to the snoop filter.
system.cpu0.mmucache.mmubus.snoop_filter.tot_snoops            0                       # Total number of snoops made to the snoop filter.
system.cpu0.not_idle_fraction                       1                       # Percentage of non-idle cycles
system.cpu0.numCycles                              30                       # number of cpu cycles simulated
system.cpu0.numWorkItemsCompleted                   0                       # number of work items this cpu completed
system.cpu0.numWorkItemsStarted                     0                       # number of work items this cpu started
system.cpu0.num_busy_cycles                        30                       # Number of busy cycles
system.cpu0.num_cc_register_reads                   5                       # number of times the CC registers were read
system.cpu0.num_cc_register_writes                  4                       # number of times the CC registers were written
system.cpu0.num_conditional_control_insts            1                       # number of instructions that are conditional controls
system.cpu0.num_fp_alu_accesses                    12                       # Number of float alu accesses
system.cpu0.num_fp_insts                           12                       # number of float instructions
system.cpu0.num_fp_register_reads                   4                       # number of times the floating registers were read
system.cpu0.num_fp_register_writes                  8                       # number of times the floating registers were written
system.cpu0.num_func_calls                          0                       # number of times a function call or return occured
system.cpu0.num_idle_cycles                         0                       # Number of idle cycles
system.cpu0.num_int_alu_accesses                   23                       # Number of integer alu accesses
system.cpu0.num_int_insts                          23                       # number of integer instructions
system.cpu0.num_int_register_reads                 58                       # number of times the integer registers were read
system.cpu0.num_int_register_writes                 8                       # number of times the integer registers were written
system.cpu0.num_load_insts                         10                       # Number of load instructions
system.cpu0.num_mem_refs                           16                       # number of memory refs
system.cpu0.num_store_insts                         6                       # Number of store instructions
system.cpu0.num_vec_alu_accesses                    0                       # Number of vector alu accesses
system.cpu0.num_vec_insts                           0                       # number of vector instructions
system.cpu0.num_vec_register_reads                  0                       # number of times the vector registers were read
system.cpu0.num_vec_register_writes                 0                       # number of times the vector registers were written
system.cpu0.op_class::No_OpClass                    2      8.00%      8.00% # Class of executed instruction
system.cpu0.op_class::IntAlu                        7     28.00%     36.00% # Class of executed instruction
system.cpu0.op_class::IntMult                       0      0.00%     36.00% # Class of executed instruction
system.cpu0.op_class::IntDiv                        0      0.00%     36.00% # Class of executed instruction
system.cpu0.op_class::FloatAdd                      0      0.00%     36.00% # Class of executed instruction
system.cpu0.op_class::FloatCmp                      0      0.00%     36.00% # Class of executed instruction
system.cpu0.op_class::FloatCvt                      0      0.00%     36.00% # Class of executed instruction
system.cpu0.op_class::FloatMult                     0      0.00%     36.00% # Class of executed instruction
system.cpu0.op_class::FloatMultAcc                  0      0.00%     36.00% # Class of executed instruction
system.cpu0.op_class::FloatDiv                      0      0.00%     36.00% # Class of executed instruction
system.cpu0.op_class::FloatMisc                     0      0.00%     36.00% # Class of executed instruction
system.cpu0.op_class::FloatSqrt                     0      0.00%     36.00% # Class of executed instruction
system.cpu0.op_class::SimdAdd                       0      0.00%     36.00% # Class of executed instruction
system.cpu0.op_class::SimdAddAcc                    0      0.00%     36.00% # Class of executed instruction
system.cpu0.op_class::SimdAlu                       0      0.00%     36.00% # Class of executed instruction
system.cpu0.op_class::SimdCmp                       0      0.00%     36.00% # Class of executed instruction
system.cpu0.op_class::SimdCvt                       0      0.00%     36.00% # Class of executed instruction
system.cpu0.op_class::SimdMisc                      0      0.00%     36.00% # Class of executed instruction
system.cpu0.op_class::SimdMult                      0      0.00%     36.00% # Class of executed instruction
system.cpu0.op_class::SimdMultAcc                   0      0.00%     36.00% # Class of executed instruction
system.cpu0.op_class::SimdShift                     0      0.00%     36.00% # Class of executed instruction
system.cpu0.op_class::SimdShiftAcc                  0      0.00%     36.00% # Class of executed instruction
system.cpu0.op_class::SimdDiv                       0      0.00%     36.00% # Class of executed instruction
system.cpu0.op_class::SimdSqrt                      0      0.00%     36.00% # Class of executed instruction
system.cpu0.op_class::SimdFloatAdd                  0      0.00%     36.00% # Class of executed instruction
system.cpu0.op_class::SimdFloatAlu                  0      0.00%     36.00% # Class of executed instruction
system.cpu0.op_class::SimdFloatCmp                  0      0.00%     36.00% # Class of executed instruction
system.cpu0.op_class::SimdFloatCvt                  0      0.00%     36.00% # Class of executed instruction
system.cpu0.op_class::SimdFloatDiv                  0      0.00%     36.00% # Class of executed instruction
system.cpu0.op_class::SimdFloatMisc                 0      0.00%     36.00% # Class of executed instruction
system.cpu0.op_class::SimdFloatMult                 0      0.00%     36.00% # Class of executed instruction
system.cpu0.op_class::SimdFloatMultAcc              0      0.00%     36.00% # Class of executed instruction
system.cpu0.op_class::SimdFloatSqrt                 0      0.00%     36.00% # Class of executed instruction
system.cpu0.op_class::SimdReduceAdd                 0      0.00%     36.00% # Class of executed instruction
system.cpu0.op_class::SimdReduceAlu                 0      0.00%     36.00% # Class of executed instruction
system.cpu0.op_class::SimdReduceCmp                 0      0.00%     36.00% # Class of executed instruction
system.cpu0.op_class::SimdFloatReduceAdd            0      0.00%     36.00% # Class of executed instruction
system.cpu0.op_class::SimdFloatReduceCmp            0      0.00%     36.00% # Class of executed instruction
system.cpu0.op_class::SimdAes                       0      0.00%     36.00% # Class of executed instruction
system.cpu0.op_class::SimdAesMix                    0      0.00%     36.00% # Class of executed instruction
system.cpu0.op_class::SimdSha1Hash                  0      0.00%     36.00% # Class of executed instruction
system.cpu0.op_class::SimdSha1Hash2                 0      0.00%     36.00% # Class of executed instruction
system.cpu0.op_class::SimdSha256Hash                0      0.00%     36.00% # Class of executed instruction
system.cpu0.op_class::SimdSha256Hash2               0      0.00%     36.00% # Class of executed instruction
system.cpu0.op_class::SimdShaSigma2                 0      0.00%     36.00% # Class of executed instruction
system.cpu0.op_class::SimdShaSigma3                 0      0.00%     36.00% # Class of executed instruction
system.cpu0.op_class::SimdPredAlu                   0      0.00%     36.00% # Class of executed instruction
system.cpu0.op_class::MemRead                       2      8.00%     44.00% # Class of executed instruction
system.cpu0.op_class::MemWrite                      2      8.00%     52.00% # Class of executed instruction
system.cpu0.op_class::FloatMemRead                  8     32.00%     84.00% # Class of executed instruction
system.cpu0.op_class::FloatMemWrite                 4     16.00%    100.00% # Class of executed instruction
system.cpu0.op_class::IprAccess                     0      0.00%    100.00% # Class of executed instruction
system.cpu0.op_class::InstPrefetch                  0      0.00%    100.00% # Class of executed instruction
system.cpu0.op_class::total                        25                       # Class of executed instruction
system.cpu0.workload.numSyscalls                    0                       # Number of system calls
system.cpu1.Branches                                1                       # Number of branches fetched
system.cpu1.committedInsts                         11                       # Number of instructions committed
system.cpu1.committedOps                           23                       # Number of ops (including micro ops) committed
system.cpu1.idle_fraction                           0                       # Percentage of idle cycles
system.cpu1.l2bus.snoop_filter.hit_multi_requests          303                       # Number of requests hitting in the snoop filter with multiple (>1) holders of the requested data.
system.cpu1.l2bus.snoop_filter.hit_multi_snoops            0                       # Number of snoops hitting in the snoop filter with multiple (>1) holders of the requested data.
system.cpu1.l2bus.snoop_filter.hit_single_requests       227080                       # Number of requests hitting in the snoop filter with a single holder of the requested data.
system.cpu1.l2bus.snoop_filter.hit_single_snoops          332                       # Number of snoops hitting in the snoop filter with a single holder of the requested data.
system.cpu1.l2bus.snoop_filter.tot_requests       454415                       # Total number of requests made to the snoop filter.
system.cpu1.l2bus.snoop_filter.tot_snoops          332                       # Total number of snoops made to the snoop filter.
system.cpu1.mmucache.mmubus.snoop_filter.hit_multi_requests            0                       # Number of requests hitting in the snoop filter with multiple (>1) holders of the requested data.
system.cpu1.mmucache.mmubus.snoop_filter.hit_multi_snoops            0                       # Number of snoops hitting in the snoop filter with multiple (>1) holders of the requested data.
system.cpu1.mmucache.mmubus.snoop_filter.hit_single_requests            0                       # Number of requests hitting in the snoop filter with a single holder of the requested data.
system.cpu1.mmucache.mmubus.snoop_filter.hit_single_snoops            0                       # Number of snoops hitting in the snoop filter with a single holder of the requested data.
system.cpu1.mmucache.mmubus.snoop_filter.tot_requests            0                       # Total number of requests made to the snoop filter.
system.cpu1.mmucache.mmubus.snoop_filter.tot_snoops            0                       # Total number of snoops made to the snoop filter.
system.cpu1.not_idle_fraction                       1                       # Percentage of non-idle cycles
system.cpu1.numCycles                              30                       # number of cpu cycles simulated
system.cpu1.numWorkItemsCompleted                   0                       # number of work items this cpu completed
system.cpu1.numWorkItemsStarted                     0                       # number of work items this cpu started
system.cpu1.num_busy_cycles                        30                       # Number of busy cycles
system.cpu1.num_cc_register_reads                   5                       # number of times the CC registers were read
system.cpu1.num_cc_register_writes                  4                       # number of times the CC registers were written
system.cpu1.num_conditional_control_insts            1                       # number of instructions that are conditional controls
system.cpu1.num_fp_alu_accesses                    12                       # Number of float alu accesses
system.cpu1.num_fp_insts                           12                       # number of float instructions
system.cpu1.num_fp_register_reads                   4                       # number of times the floating registers were read
system.cpu1.num_fp_register_writes                  8                       # number of times the floating registers were written
system.cpu1.num_func_calls                          0                       # number of times a function call or return occured
system.cpu1.num_idle_cycles                         0                       # Number of idle cycles
system.cpu1.num_int_alu_accesses                   23                       # Number of integer alu accesses
system.cpu1.num_int_insts                          23                       # number of integer instructions
system.cpu1.num_int_register_reads                 58                       # number of times the integer registers were read
system.cpu1.num_int_register_writes                 8                       # number of times the integer registers were written
system.cpu1.num_load_insts                         10                       # Number of load instructions
system.cpu1.num_mem_refs                           16                       # number of memory refs
system.cpu1.num_store_insts                         6                       # Number of store instructions
system.cpu1.num_vec_alu_accesses                    0                       # Number of vector alu accesses
system.cpu1.num_vec_insts                           0                       # number of vector instructions
system.cpu1.num_vec_register_reads                  0                       # number of times the vector registers were read
system.cpu1.num_vec_register_writes                 0                       # number of times the vector registers were written
system.cpu1.op_class::No_OpClass                    2      8.00%      8.00% # Class of executed instruction
system.cpu1.op_class::IntAlu                        7     28.00%     36.00% # Class of executed instruction
system.cpu1.op_class::IntMult                       0      0.00%     36.00% # Class of executed instruction
system.cpu1.op_class::IntDiv                        0      0.00%     36.00% # Class of executed instruction
system.cpu1.op_class::FloatAdd                      0      0.00%     36.00% # Class of executed instruction
system.cpu1.op_class::FloatCmp                      0      0.00%     36.00% # Class of executed instruction
system.cpu1.op_class::FloatCvt                      0      0.00%     36.00% # Class of executed instruction
system.cpu1.op_class::FloatMult                     0      0.00%     36.00% # Class of executed instruction
system.cpu1.op_class::FloatMultAcc                  0      0.00%     36.00% # Class of executed instruction
system.cpu1.op_class::FloatDiv                      0      0.00%     36.00% # Class of executed instruction
system.cpu1.op_class::FloatMisc                     0      0.00%     36.00% # Class of executed instruction
system.cpu1.op_class::FloatSqrt                     0      0.00%     36.00% # Class of executed instruction
system.cpu1.op_class::SimdAdd                       0      0.00%     36.00% # Class of executed instruction
system.cpu1.op_class::SimdAddAcc                    0      0.00%     36.00% # Class of executed instruction
system.cpu1.op_class::SimdAlu                       0      0.00%     36.00% # Class of executed instruction
system.cpu1.op_class::SimdCmp                       0      0.00%     36.00% # Class of executed instruction
system.cpu1.op_class::SimdCvt                       0      0.00%     36.00% # Class of executed instruction
system.cpu1.op_class::SimdMisc                      0      0.00%     36.00% # Class of executed instruction
system.cpu1.op_class::SimdMult                      0      0.00%     36.00% # Class of executed instruction
system.cpu1.op_class::SimdMultAcc                   0      0.00%     36.00% # Class of executed instruction
system.cpu1.op_class::SimdShift                     0      0.00%     36.00% # Class of executed instruction
system.cpu1.op_class::SimdShiftAcc                  0      0.00%     36.00% # Class of executed instruction
system.cpu1.op_class::SimdDiv                       0      0.00%     36.00% # Class of executed instruction
system.cpu1.op_class::SimdSqrt                      0      0.00%     36.00% # Class of executed instruction
system.cpu1.op_class::SimdFloatAdd                  0      0.00%     36.00% # Class of executed instruction
system.cpu1.op_class::SimdFloatAlu                  0      0.00%     36.00% # Class of executed instruction
system.cpu1.op_class::SimdFloatCmp                  0      0.00%     36.00% # Class of executed instruction
system.cpu1.op_class::SimdFloatCvt                  0      0.00%     36.00% # Class of executed instruction
system.cpu1.op_class::SimdFloatDiv                  0      0.00%     36.00% # Class of executed instruction
system.cpu1.op_class::SimdFloatMisc                 0      0.00%     36.00% # Class of executed instruction
system.cpu1.op_class::SimdFloatMult                 0      0.00%     36.00% # Class of executed instruction
system.cpu1.op_class::SimdFloatMultAcc              0      0.00%     36.00% # Class of executed instruction
system.cpu1.op_class::SimdFloatSqrt                 0      0.00%     36.00% # Class of executed instruction
system.cpu1.op_class::SimdReduceAdd                 0      0.00%     36.00% # Class of executed instruction
system.cpu1.op_class::SimdReduceAlu                 0      0.00%     36.00% # Class of executed instruction
system.cpu1.op_class::SimdReduceCmp                 0      0.00%     36.00% # Class of executed instruction
system.cpu1.op_class::SimdFloatReduceAdd            0      0.00%     36.00% # Class of executed instruction
system.cpu1.op_class::SimdFloatReduceCmp            0      0.00%     36.00% # Class of executed instruction
system.cpu1.op_class::SimdAes                       0      0.00%     36.00% # Class of executed instruction
system.cpu1.op_class::SimdAesMix                    0      0.00%     36.00% # Class of executed instruction
system.cpu1.op_class::SimdSha1Hash                  0      0.00%     36.00% # Class of executed instruction
system.cpu1.op_class::SimdSha1Hash2                 0      0.00%     36.00% # Class of executed instruction
system.cpu1.op_class::SimdSha256Hash                0      0.00%     36.00% # Class of executed instruction
system.cpu1.op_class::SimdSha256Hash2               0      0.00%     36.00% # Class of executed instruction
system.cpu1.op_class::SimdShaSigma2                 0      0.00%     36.00% # Class of executed instruction
system.cpu1.op_class::SimdShaSigma3                 0      0.00%     36.00% # Class of executed instruction
system.cpu1.op_class::SimdPredAlu                   0      0.00%     36.00% # Class of executed instruction
system.cpu1.op_class::MemRead                       2      8.00%     44.00% # Class of executed instruction
system.cpu1.op_class::MemWrite                      2      8.00%     52.00% # Class of executed instruction
system.cpu1.op_class::FloatMemRead                  8     32.00%     84.00% # Class of executed instruction
system.cpu1.op_class::FloatMemWrite                 4     16.00%    100.00% # Class of executed instruction
system.cpu1.op_class::IprAccess                     0      0.00%    100.00% # Class of executed instruction
system.cpu1.op_class::InstPrefetch                  0      0.00%    100.00% # Class of executed instruction
system.cpu1.op_class::total                        25                       # Class of executed instruction
system.cpu1.workload.numSyscalls                    0                       # Number of system calls
system.cpu2.Branches                                1                       # Number of branches fetched
system.cpu2.committedInsts                         11                       # Number of instructions committed
system.cpu2.committedOps                           23                       # Number of ops (including micro ops) committed
system.cpu2.idle_fraction                           0                       # Percentage of idle cycles
system.cpu2.l2bus.snoop_filter.hit_multi_requests          113                       # Number of requests hitting in the snoop filter with multiple (>1) holders of the requested data.
system.cpu2.l2bus.snoop_filter.hit_multi_snoops            0                       # Number of snoops hitting in the snoop filter with multiple (>1) holders of the requested data.
system.cpu2.l2bus.snoop_filter.hit_single_requests       226939                       # Number of requests hitting in the snoop filter with a single holder of the requested data.
system.cpu2.l2bus.snoop_filter.hit_single_snoops          355                       # Number of snoops hitting in the snoop filter with a single holder of the requested data.
system.cpu2.l2bus.snoop_filter.tot_requests       454249                       # Total number of requests made to the snoop filter.
system.cpu2.l2bus.snoop_filter.tot_snoops          355                       # Total number of snoops made to the snoop filter.
system.cpu2.mmucache.mmubus.snoop_filter.hit_multi_requests            0                       # Number of requests hitting in the snoop filter with multiple (>1) holders of the requested data.
system.cpu2.mmucache.mmubus.snoop_filter.hit_multi_snoops            0                       # Number of snoops hitting in the snoop filter with multiple (>1) holders of the requested data.
system.cpu2.mmucache.mmubus.snoop_filter.hit_single_requests            0                       # Number of requests hitting in the snoop filter with a single holder of the requested data.
system.cpu2.mmucache.mmubus.snoop_filter.hit_single_snoops            0                       # Number of snoops hitting in the snoop filter with a single holder of the requested data.
system.cpu2.mmucache.mmubus.snoop_filter.tot_requests            0                       # Total number of requests made to the snoop filter.
system.cpu2.mmucache.mmubus.snoop_filter.tot_snoops            0                       # Total number of snoops made to the snoop filter.
system.cpu2.not_idle_fraction                       1                       # Percentage of non-idle cycles
system.cpu2.numCycles                              30                       # number of cpu cycles simulated
system.cpu2.numWorkItemsCompleted                   0                       # number of work items this cpu completed
system.cpu2.numWorkItemsStarted                     0                       # number of work items this cpu started
system.cpu2.num_busy_cycles                        30                       # Number of busy cycles
system.cpu2.num_cc_register_reads                   5                       # number of times the CC registers were read
system.cpu2.num_cc_register_writes                  4                       # number of times the CC registers were written
system.cpu2.num_conditional_control_insts            1                       # number of instructions that are conditional controls
system.cpu2.num_fp_alu_accesses                    12                       # Number of float alu accesses
system.cpu2.num_fp_insts                           12                       # number of float instructions
system.cpu2.num_fp_register_reads                   4                       # number of times the floating registers were read
system.cpu2.num_fp_register_writes                  8                       # number of times the floating registers were written
system.cpu2.num_func_calls                          0                       # number of times a function call or return occured
system.cpu2.num_idle_cycles                         0                       # Number of idle cycles
system.cpu2.num_int_alu_accesses                   23                       # Number of integer alu accesses
system.cpu2.num_int_insts                          23                       # number of integer instructions
system.cpu2.num_int_register_reads                 58                       # number of times the integer registers were read
system.cpu2.num_int_register_writes                 8                       # number of times the integer registers were written
system.cpu2.num_load_insts                         10                       # Number of load instructions
system.cpu2.num_mem_refs                           16                       # number of memory refs
system.cpu2.num_store_insts                         6                       # Number of store instructions
system.cpu2.num_vec_alu_accesses                    0                       # Number of vector alu accesses
system.cpu2.num_vec_insts                           0                       # number of vector instructions
system.cpu2.num_vec_register_reads                  0                       # number of times the vector registers were read
system.cpu2.num_vec_register_writes                 0                       # number of times the vector registers were written
system.cpu2.op_class::No_OpClass                    2      8.00%      8.00% # Class of executed instruction
system.cpu2.op_class::IntAlu                        7     28.00%     36.00% # Class of executed instruction
system.cpu2.op_class::IntMult                       0      0.00%     36.00% # Class of executed instruction
system.cpu2.op_class::IntDiv                        0      0.00%     36.00% # Class of executed instruction
system.cpu2.op_class::FloatAdd                      0      0.00%     36.00% # Class of executed instruction
system.cpu2.op_class::FloatCmp                      0      0.00%     36.00% # Class of executed instruction
system.cpu2.op_class::FloatCvt                      0      0.00%     36.00% # Class of executed instruction
system.cpu2.op_class::FloatMult                     0      0.00%     36.00% # Class of executed instruction
system.cpu2.op_class::FloatMultAcc                  0      0.00%     36.00% # Class of executed instruction
system.cpu2.op_class::FloatDiv                      0      0.00%     36.00% # Class of executed instruction
system.cpu2.op_class::FloatMisc                     0      0.00%     36.00% # Class of executed instruction
system.cpu2.op_class::FloatSqrt                     0      0.00%     36.00% # Class of executed instruction
system.cpu2.op_class::SimdAdd                       0      0.00%     36.00% # Class of executed instruction
system.cpu2.op_class::SimdAddAcc                    0      0.00%     36.00% # Class of executed instruction
system.cpu2.op_class::SimdAlu                       0      0.00%     36.00% # Class of executed instruction
system.cpu2.op_class::SimdCmp                       0      0.00%     36.00% # Class of executed instruction
system.cpu2.op_class::SimdCvt                       0      0.00%     36.00% # Class of executed instruction
system.cpu2.op_class::SimdMisc                      0      0.00%     36.00% # Class of executed instruction
system.cpu2.op_class::SimdMult                      0      0.00%     36.00% # Class of executed instruction
system.cpu2.op_class::SimdMultAcc                   0      0.00%     36.00% # Class of executed instruction
system.cpu2.op_class::SimdShift                     0      0.00%     36.00% # Class of executed instruction
system.cpu2.op_class::SimdShiftAcc                  0      0.00%     36.00% # Class of executed instruction
system.cpu2.op_class::SimdDiv                       0      0.00%     36.00% # Class of executed instruction
system.cpu2.op_class::SimdSqrt                      0      0.00%     36.00% # Class of executed instruction
system.cpu2.op_class::SimdFloatAdd                  0      0.00%     36.00% # Class of executed instruction
system.cpu2.op_class::SimdFloatAlu                  0      0.00%     36.00% # Class of executed instruction
system.cpu2.op_class::SimdFloatCmp                  0      0.00%     36.00% # Class of executed instruction
system.cpu2.op_class::SimdFloatCvt                  0      0.00%     36.00% # Class of executed instruction
system.cpu2.op_class::SimdFloatDiv                  0      0.00%     36.00% # Class of executed instruction
system.cpu2.op_class::SimdFloatMisc                 0      0.00%     36.00% # Class of executed instruction
system.cpu2.op_class::SimdFloatMult                 0      0.00%     36.00% # Class of executed instruction
system.cpu2.op_class::SimdFloatMultAcc              0      0.00%     36.00% # Class of executed instruction
system.cpu2.op_class::SimdFloatSqrt                 0      0.00%     36.00% # Class of executed instruction
system.cpu2.op_class::SimdReduceAdd                 0      0.00%     36.00% # Class of executed instruction
system.cpu2.op_class::SimdReduceAlu                 0      0.00%     36.00% # Class of executed instruction
system.cpu2.op_class::SimdReduceCmp                 0      0.00%     36.00% # Class of executed instruction
system.cpu2.op_class::SimdFloatReduceAdd            0      0.00%     36.00% # Class of executed instruction
system.cpu2.op_class::SimdFloatReduceCmp            0      0.00%     36.00% # Class of executed instruction
system.cpu2.op_class::SimdAes                       0      0.00%     36.00% # Class of executed instruction
system.cpu2.op_class::SimdAesMix                    0      0.00%     36.00% # Class of executed instruction
system.cpu2.op_class::SimdSha1Hash                  0      0.00%     36.00% # Class of executed instruction
system.cpu2.op_class::SimdSha1Hash2                 0      0.00%     36.00% # Class of executed instruction
system.cpu2.op_class::SimdSha256Hash                0      0.00%     36.00% # Class of executed instruction
system.cpu2.op_class::SimdSha256Hash2               0      0.00%     36.00% # Class of executed instruction
system.cpu2.op_class::SimdShaSigma2                 0      0.00%     36.00% # Class of executed instruction
system.cpu2.op_class::SimdShaSigma3                 0      0.00%     36.00% # Class of executed instruction
system.cpu2.op_class::SimdPredAlu                   0      0.00%     36.00% # Class of executed instruction
system.cpu2.op_class::MemRead                       2      8.00%     44.00% # Class of executed instruction
system.cpu2.op_class::MemWrite                      2      8.00%     52.00% # Class of executed instruction
system.cpu2.op_class::FloatMemRead                  8     32.00%     84.00% # Class of executed instruction
system.cpu2.op_class::FloatMemWrite                 4     16.00%    100.00% # Class of executed instruction
system.cpu2.op_class::IprAccess                     0      0.00%    100.00% # Class of executed instruction
system.cpu2.op_class::InstPrefetch                  0      0.00%    100.00% # Class of executed instruction
system.cpu2.op_class::total                        25                       # Class of executed instruction
system.cpu2.workload.numSyscalls                    0                       # Number of system calls
system.cpu3.Branches                                1                       # Number of branches fetched
system.cpu3.committedInsts                         11                       # Number of instructions committed
system.cpu3.committedOps                           23                       # Number of ops (including micro ops) committed
system.cpu3.idle_fraction                           0                       # Percentage of idle cycles
system.cpu3.l2bus.snoop_filter.hit_multi_requests          286                       # Number of requests hitting in the snoop filter with multiple (>1) holders of the requested data.
system.cpu3.l2bus.snoop_filter.hit_multi_snoops            0                       # Number of snoops hitting in the snoop filter with multiple (>1) holders of the requested data.
system.cpu3.l2bus.snoop_filter.hit_single_requests       227066                       # Number of requests hitting in the snoop filter with a single holder of the requested data.
system.cpu3.l2bus.snoop_filter.hit_single_snoops          271                       # Number of snoops hitting in the snoop filter with a single holder of the requested data.
system.cpu3.l2bus.snoop_filter.tot_requests       454378                       # Total number of requests made to the snoop filter.
system.cpu3.l2bus.snoop_filter.tot_snoops          271                       # Total number of snoops made to the snoop filter.
system.cpu3.mmucache.mmubus.snoop_filter.hit_multi_requests            0                       # Number of requests hitting in the snoop filter with multiple (>1) holders of the requested data.
system.cpu3.mmucache.mmubus.snoop_filter.hit_multi_snoops            0                       # Number of snoops hitting in the snoop filter with multiple (>1) holders of the requested data.
system.cpu3.mmucache.mmubus.snoop_filter.hit_single_requests            0                       # Number of requests hitting in the snoop filter with a single holder of the requested data.
system.cpu3.mmucache.mmubus.snoop_filter.hit_single_snoops            0                       # Number of snoops hitting in the snoop filter with a single holder of the requested data.
system.cpu3.mmucache.mmubus.snoop_filter.tot_requests            0                       # Total number of requests made to the snoop filter.
system.cpu3.mmucache.mmubus.snoop_filter.tot_snoops            0                       # Total number of snoops made to the snoop filter.
system.cpu3.not_idle_fraction                       1                       # Percentage of non-idle cycles
system.cpu3.numCycles                              30                       # number of cpu cycles simulated
system.cpu3.numWorkItemsCompleted                   0                       # number of work items this cpu completed
system.cpu3.numWorkItemsStarted                     0                       # number of work items this cpu started
system.cpu3.num_busy_cycles                        30                       # Number of busy cycles
system.cpu3.num_cc_register_reads                   5                       # number of times the CC registers were read
system.cpu3.num_cc_register_writes                  4                       # number of times the CC registers were written
system.cpu3.num_conditional_control_insts            1                       # number of instructions that are conditional controls
system.cpu3.num_fp_alu_accesses                    12                       # Number of float alu accesses
system.cpu3.num_fp_insts                           12                       # number of float instructions
system.cpu3.num_fp_register_reads                   4                       # number of times the floating registers were read
system.cpu3.num_fp_register_writes                  8                       # number of times the floating registers were written
system.cpu3.num_func_calls                          0                       # number of times a function call or return occured
system.cpu3.num_idle_cycles                         0                       # Number of idle cycles
system.cpu3.num_int_alu_accesses                   23                       # Number of integer alu accesses
system.cpu3.num_int_insts                          23                       # number of integer instructions
system.cpu3.num_int_register_reads                 58                       # number of times the integer registers were read
system.cpu3.num_int_register_writes                 8                       # number of times the integer registers were written
system.cpu3.num_load_insts                         10                       # Number of load instructions
system.cpu3.num_mem_refs                           16                       # number of memory refs
system.cpu3.num_store_insts                         6                       # Number of store instructions
system.cpu3.num_vec_alu_accesses                    0                       # Number of vector alu accesses
system.cpu3.num_vec_insts                           0                       # number of vector instructions
system.cpu3.num_vec_register_reads                  0                       # number of times the vector registers were read
system.cpu3.num_vec_register_writes                 0                       # number of times the vector registers were written
system.cpu3.op_class::No_OpClass                    2      8.00%      8.00% # Class of executed instruction
system.cpu3.op_class::IntAlu                        7     28.00%     36.00% # Class of executed instruction
system.cpu3.op_class::IntMult                       0      0.00%     36.00% # Class of executed instruction
system.cpu3.op_class::IntDiv                        0      0.00%     36.00% # Class of executed instruction
system.cpu3.op_class::FloatAdd                      0      0.00%     36.00% # Class of executed instruction
system.cpu3.op_class::FloatCmp                      0      0.00%     36.00% # Class of executed instruction
system.cpu3.op_class::FloatCvt                      0      0.00%     36.00% # Class of executed instruction
system.cpu3.op_class::FloatMult                     0      0.00%     36.00% # Class of executed instruction
system.cpu3.op_class::FloatMultAcc                  0      0.00%     36.00% # Class of executed instruction
system.cpu3.op_class::FloatDiv                      0      0.00%     36.00% # Class of executed instruction
system.cpu3.op_class::FloatMisc                     0      0.00%     36.00% # Class of executed instruction
system.cpu3.op_class::FloatSqrt                     0      0.00%     36.00% # Class of executed instruction
system.cpu3.op_class::SimdAdd                       0      0.00%     36.00% # Class of executed instruction
system.cpu3.op_class::SimdAddAcc                    0      0.00%     36.00% # Class of executed instruction
system.cpu3.op_class::SimdAlu                       0      0.00%     36.00% # Class of executed instruction
system.cpu3.op_class::SimdCmp                       0      0.00%     36.00% # Class of executed instruction
system.cpu3.op_class::SimdCvt                       0      0.00%     36.00% # Class of executed instruction
system.cpu3.op_class::SimdMisc                      0      0.00%     36.00% # Class of executed instruction
system.cpu3.op_class::SimdMult                      0      0.00%     36.00% # Class of executed instruction
system.cpu3.op_class::SimdMultAcc                   0      0.00%     36.00% # Class of executed instruction
system.cpu3.op_class::SimdShift                     0      0.00%     36.00% # Class of executed instruction
system.cpu3.op_class::SimdShiftAcc                  0      0.00%     36.00% # Class of executed instruction
system.cpu3.op_class::SimdDiv                       0      0.00%     36.00% # Class of executed instruction
system.cpu3.op_class::SimdSqrt                      0      0.00%     36.00% # Class of executed instruction
system.cpu3.op_class::SimdFloatAdd                  0      0.00%     36.00% # Class of executed instruction
system.cpu3.op_class::SimdFloatAlu                  0      0.00%     36.00% # Class of executed instruction
system.cpu3.op_class::SimdFloatCmp                  0      0.00%     36.00% # Class of executed instruction
system.cpu3.op_class::SimdFloatCvt                  0      0.00%     36.00% # Class of executed instruction
system.cpu3.op_class::SimdFloatDiv                  0      0.00%     36.00% # Class of executed instruction
system.cpu3.op_class::SimdFloatMisc                 0      0.00%     36.00% # Class of executed instruction
system.cpu3.op_class::SimdFloatMult                 0      0.00%     36.00% # Class of executed instruction
system.cpu3.op_class::SimdFloatMultAcc              0      0.00%     36.00% # Class of executed instruction
system.cpu3.op_class::SimdFloatSqrt                 0      0.00%     36.00% # Class of executed instruction
system.cpu3.op_class::SimdReduceAdd                 0      0.00%     36.00% # Class of executed instruction
system.cpu3.op_class::SimdReduceAlu                 0      0.00%     36.00% # Class of executed instruction
system.cpu3.op_class::SimdReduceCmp                 0      0.00%     36.00% # Class of executed instruction
system.cpu3.op_class::SimdFloatReduceAdd            0      0.00%     36.00% # Class of executed instruction
system.cpu3.op_class::SimdFloatReduceCmp            0      0.00%     36.00% # Class of executed instruction
system.cpu3.op_class::SimdAes                       0      0.00%     36.00% # Class of executed instruction
system.cpu3.op_class::SimdAesMix                    0      0.00%     36.00% # Class of executed instruction
system.cpu3.op_class::SimdSha1Hash                  0      0.00%     36.00% # Class of executed instruction
system.cpu3.op_class::SimdSha1Hash2                 0      0.00%     36.00% # Class of executed instruction
system.cpu3.op_class::SimdSha256Hash                0      0.00%     36.00% # Class of executed instruction
system.cpu3.op_class::SimdSha256Hash2               0      0.00%     36.00% # Class of executed instruction
system.cpu3.op_class::SimdShaSigma2                 0      0.00%     36.00% # Class of executed instruction
system.cpu3.op_class::SimdShaSigma3                 0      0.00%     36.00% # Class of executed instruction
system.cpu3.op_class::SimdPredAlu                   0      0.00%     36.00% # Class of executed instruction
system.cpu3.op_class::MemRead                       2      8.00%     44.00% # Class of executed instruction
system.cpu3.op_class::MemWrite                      2      8.00%     52.00% # Class of executed instruction
system.cpu3.op_class::FloatMemRead                  8     32.00%     84.00% # Class of executed instruction
system.cpu3.op_class::FloatMemWrite                 4     16.00%    100.00% # Class of executed instruction
system.cpu3.op_class::IprAccess                     0      0.00%    100.00% # Class of executed instruction
system.cpu3.op_class::InstPrefetch                  0      0.00%    100.00% # Class of executed instruction
system.cpu3.op_class::total                        25                       # Class of executed instruction
system.cpu3.workload.numSyscalls                    0                       # Number of system calls
system.l3bus.snoop_filter.hit_multi_requests            0                       # Number of requests hitting in the snoop filter with multiple (>1) holders of the requested data.
system.l3bus.snoop_filter.hit_multi_snoops            0                       # Number of snoops hitting in the snoop filter with multiple (>1) holders of the requested data.
system.l3bus.snoop_filter.hit_single_requests       423963                       # Number of requests hitting in the snoop filter with a single holder of the requested data.
system.l3bus.snoop_filter.hit_single_snoops            0                       # Number of snoops hitting in the snoop filter with a single holder of the requested data.
system.l3bus.snoop_filter.tot_requests         858218                       # Total number of requests made to the snoop filter.
system.l3bus.snoop_filter.tot_snoops                0                       # Total number of snoops made to the snoop filter.
system.membus.snoop_filter.hit_multi_requests            0                       # Number of requests hitting in the snoop filter with multiple (>1) holders of the requested data.
system.membus.snoop_filter.hit_multi_snoops            0                       # Number of snoops hitting in the snoop filter with multiple (>1) holders of the requested data.
system.membus.snoop_filter.hit_single_requests       335672                       # Number of requests hitting in the snoop filter with a single holder of the requested data.
system.membus.snoop_filter.hit_single_snoops            0                       # Number of snoops hitting in the snoop filter with a single holder of the requested data.
system.membus.snoop_filter.tot_requests        746976                       # Total number of requests made to the snoop filter.
system.membus.snoop_filter.tot_snoops               0                       # Total number of snoops made to the snoop filter.
system.switch_cpus0.cc_regfile_reads        213994456                       # number of cc regfile reads
system.switch_cpus0.cc_regfile_writes       252658684                       # number of cc regfile writes
system.switch_cpus0.committedInsts          249999975                       # Number of Instructions Simulated
system.switch_cpus0.committedOps            362744658                       # Number of Ops (including micro ops) Simulated
system.switch_cpus0.cpi                      0.880960                       # CPI: Cycles Per Instruction
system.switch_cpus0.cpi_total                0.880960                       # CPI: Total CPI of All Threads
system.switch_cpus0.fp_regfile_reads          6381696                       # number of floating regfile reads
system.switch_cpus0.fp_regfile_writes         6348897                       # number of floating regfile writes
system.switch_cpus0.idleCycles                  48924                       # Total number of cycles that the CPU has spent unscheduled due to idling
system.switch_cpus0.iew.branchMispredicts      3375582                       # Number of branch mispredicts detected at execute
system.switch_cpus0.iew.exec_branches        39344817                       # Number of branches executed
system.switch_cpus0.iew.exec_nop                    0                       # number of nop insts executed
system.switch_cpus0.iew.exec_rate            2.240380                       # Inst execution rate
system.switch_cpus0.iew.exec_refs            85818068                       # number of memory reference insts executed
system.switch_cpus0.iew.exec_stores          26457420                       # Number of stores executed
system.switch_cpus0.iew.exec_swp                    0                       # number of swp insts executed
system.switch_cpus0.iew.iewBlockCycles       41453217                       # Number of cycles IEW is blocking
system.switch_cpus0.iew.iewDispLoadInsts     69490229                       # Number of dispatched load instructions
system.switch_cpus0.iew.iewDispNonSpecInsts            0                       # Number of dispatched non-speculative instructions
system.switch_cpus0.iew.iewDispSquashedInsts         7637                       # Number of squashed instructions skipped by dispatch
system.switch_cpus0.iew.iewDispStoreInsts     37376446                       # Number of dispatched store instructions
system.switch_cpus0.iew.iewDispatchedInsts    622584209                       # Number of instructions dispatched to IQ
system.switch_cpus0.iew.iewExecLoadInsts     59360648                       # Number of load instructions executed
system.switch_cpus0.iew.iewExecSquashedInsts      6092861                       # Number of squashed instructions skipped in execute
system.switch_cpus0.iew.iewExecutedInsts    493421499                       # Number of executed instructions
system.switch_cpus0.iew.iewIQFullEvents        135890                       # Number of times the IQ has become full, causing a stall
system.switch_cpus0.iew.iewIdleCycles               0                       # Number of cycles IEW is idle
system.switch_cpus0.iew.iewLSQFullEvents       666584                       # Number of times the LSQ has become full, causing a stall
system.switch_cpus0.iew.iewSquashCycles       3297164                       # Number of cycles IEW is squashing
system.switch_cpus0.iew.iewUnblockCycles       784374                       # Number of cycles IEW is unblocking
system.switch_cpus0.iew.memOrderViolationEvents        19522                       # Number of memory order violations
system.switch_cpus0.iew.predictedNotTakenIncorrect      1332076                       # Number of branches that were predicted not taken incorrectly
system.switch_cpus0.iew.predictedTakenIncorrect      2043506                       # Number of branches that were predicted taken incorrectly
system.switch_cpus0.iew.wb_consumers        720067659                       # num instructions consuming a value
system.switch_cpus0.iew.wb_count            488643562                       # cumulative count of insts written-back
system.switch_cpus0.iew.wb_fanout            0.543075                       # average fanout of values written-back
system.switch_cpus0.iew.wb_producers        391050902                       # num instructions producing a value
system.switch_cpus0.iew.wb_rate              2.218686                       # insts written-back per cycle
system.switch_cpus0.iew.wb_sent             492877526                       # cumulative count of insts sent to commit
system.switch_cpus0.int_regfile_reads       794312703                       # number of integer regfile reads
system.switch_cpus0.int_regfile_writes      426884757                       # number of integer regfile writes
system.switch_cpus0.ipc                      1.135125                       # IPC: Instructions Per Cycle
system.switch_cpus0.ipc_total                1.135125                       # IPC: Total IPC of All Threads
system.switch_cpus0.iq.FU_type_0::No_OpClass      3143815      0.63%      0.63% # Type of FU issued
system.switch_cpus0.iq.FU_type_0::IntAlu    398568456     79.79%     80.42% # Type of FU issued
system.switch_cpus0.iq.FU_type_0::IntMult      9295967      1.86%     82.28% # Type of FU issued
system.switch_cpus0.iq.FU_type_0::IntDiv            0      0.00%     82.28% # Type of FU issued
system.switch_cpus0.iq.FU_type_0::FloatAdd            0      0.00%     82.28% # Type of FU issued
system.switch_cpus0.iq.FU_type_0::FloatCmp            0      0.00%     82.28% # Type of FU issued
system.switch_cpus0.iq.FU_type_0::FloatCvt            0      0.00%     82.28% # Type of FU issued
system.switch_cpus0.iq.FU_type_0::FloatMult            0      0.00%     82.28% # Type of FU issued
system.switch_cpus0.iq.FU_type_0::FloatMultAcc            0      0.00%     82.28% # Type of FU issued
system.switch_cpus0.iq.FU_type_0::FloatDiv            0      0.00%     82.28% # Type of FU issued
system.switch_cpus0.iq.FU_type_0::FloatMisc            0      0.00%     82.28% # Type of FU issued
system.switch_cpus0.iq.FU_type_0::FloatSqrt            0      0.00%     82.28% # Type of FU issued
system.switch_cpus0.iq.FU_type_0::SimdAdd            0      0.00%     82.28% # Type of FU issued
system.switch_cpus0.iq.FU_type_0::SimdAddAcc            0      0.00%     82.28% # Type of FU issued
system.switch_cpus0.iq.FU_type_0::SimdAlu            0      0.00%     82.28% # Type of FU issued
system.switch_cpus0.iq.FU_type_0::SimdCmp            0      0.00%     82.28% # Type of FU issued
system.switch_cpus0.iq.FU_type_0::SimdCvt            0      0.00%     82.28% # Type of FU issued
system.switch_cpus0.iq.FU_type_0::SimdMisc            0      0.00%     82.28% # Type of FU issued
system.switch_cpus0.iq.FU_type_0::SimdMult            0      0.00%     82.28% # Type of FU issued
system.switch_cpus0.iq.FU_type_0::SimdMultAcc            0      0.00%     82.28% # Type of FU issued
system.switch_cpus0.iq.FU_type_0::SimdShift            0      0.00%     82.28% # Type of FU issued
system.switch_cpus0.iq.FU_type_0::SimdShiftAcc            0      0.00%     82.28% # Type of FU issued
system.switch_cpus0.iq.FU_type_0::SimdDiv            0      0.00%     82.28% # Type of FU issued
system.switch_cpus0.iq.FU_type_0::SimdSqrt            0      0.00%     82.28% # Type of FU issued
system.switch_cpus0.iq.FU_type_0::SimdFloatAdd            0      0.00%     82.28% # Type of FU issued
system.switch_cpus0.iq.FU_type_0::SimdFloatAlu            0      0.00%     82.28% # Type of FU issued
system.switch_cpus0.iq.FU_type_0::SimdFloatCmp            0      0.00%     82.28% # Type of FU issued
system.switch_cpus0.iq.FU_type_0::SimdFloatCvt            0      0.00%     82.28% # Type of FU issued
system.switch_cpus0.iq.FU_type_0::SimdFloatDiv            0      0.00%     82.28% # Type of FU issued
system.switch_cpus0.iq.FU_type_0::SimdFloatMisc            0      0.00%     82.28% # Type of FU issued
system.switch_cpus0.iq.FU_type_0::SimdFloatMult            0      0.00%     82.28% # Type of FU issued
system.switch_cpus0.iq.FU_type_0::SimdFloatMultAcc            0      0.00%     82.28% # Type of FU issued
system.switch_cpus0.iq.FU_type_0::SimdFloatSqrt            0      0.00%     82.28% # Type of FU issued
system.switch_cpus0.iq.FU_type_0::SimdReduceAdd            0      0.00%     82.28% # Type of FU issued
system.switch_cpus0.iq.FU_type_0::SimdReduceAlu            0      0.00%     82.28% # Type of FU issued
system.switch_cpus0.iq.FU_type_0::SimdReduceCmp            0      0.00%     82.28% # Type of FU issued
system.switch_cpus0.iq.FU_type_0::SimdFloatReduceAdd            0      0.00%     82.28% # Type of FU issued
system.switch_cpus0.iq.FU_type_0::SimdFloatReduceCmp            0      0.00%     82.28% # Type of FU issued
system.switch_cpus0.iq.FU_type_0::SimdAes            0      0.00%     82.28% # Type of FU issued
system.switch_cpus0.iq.FU_type_0::SimdAesMix            0      0.00%     82.28% # Type of FU issued
system.switch_cpus0.iq.FU_type_0::SimdSha1Hash            0      0.00%     82.28% # Type of FU issued
system.switch_cpus0.iq.FU_type_0::SimdSha1Hash2            0      0.00%     82.28% # Type of FU issued
system.switch_cpus0.iq.FU_type_0::SimdSha256Hash            0      0.00%     82.28% # Type of FU issued
system.switch_cpus0.iq.FU_type_0::SimdSha256Hash2            0      0.00%     82.28% # Type of FU issued
system.switch_cpus0.iq.FU_type_0::SimdShaSigma2            0      0.00%     82.28% # Type of FU issued
system.switch_cpus0.iq.FU_type_0::SimdShaSigma3            0      0.00%     82.28% # Type of FU issued
system.switch_cpus0.iq.FU_type_0::SimdPredAlu            0      0.00%     82.28% # Type of FU issued
system.switch_cpus0.iq.FU_type_0::MemRead     54116339     10.83%     93.12% # Type of FU issued
system.switch_cpus0.iq.FU_type_0::MemWrite     21566436      4.32%     97.43% # Type of FU issued
system.switch_cpus0.iq.FU_type_0::FloatMemRead      6427711      1.29%     98.72% # Type of FU issued
system.switch_cpus0.iq.FU_type_0::FloatMemWrite      6395638      1.28%    100.00% # Type of FU issued
system.switch_cpus0.iq.FU_type_0::IprAccess            0      0.00%    100.00% # Type of FU issued
system.switch_cpus0.iq.FU_type_0::InstPrefetch            0      0.00%    100.00% # Type of FU issued
system.switch_cpus0.iq.FU_type_0::total     499514362                       # Type of FU issued
system.switch_cpus0.iq.fp_alu_accesses       15594903                       # Number of floating point alu accesses
system.switch_cpus0.iq.fp_inst_queue_reads     28425058                       # Number of floating instruction queue reads
system.switch_cpus0.iq.fp_inst_queue_wakeup_accesses     12710811                       # Number of floating instruction queue wakeup accesses
system.switch_cpus0.iq.fp_inst_queue_writes     24765578                       # Number of floating instruction queue writes
system.switch_cpus0.iq.fu_busy_cnt            7857159                       # FU busy when requested
system.switch_cpus0.iq.fu_busy_rate          0.015730                       # FU busy rate (busy events/executed inst)
system.switch_cpus0.iq.fu_full::No_OpClass            0      0.00%      0.00% # attempts to use FU when none available
system.switch_cpus0.iq.fu_full::IntAlu        3192218     40.63%     40.63% # attempts to use FU when none available
system.switch_cpus0.iq.fu_full::IntMult             0      0.00%     40.63% # attempts to use FU when none available
system.switch_cpus0.iq.fu_full::IntDiv              0      0.00%     40.63% # attempts to use FU when none available
system.switch_cpus0.iq.fu_full::FloatAdd            0      0.00%     40.63% # attempts to use FU when none available
system.switch_cpus0.iq.fu_full::FloatCmp            0      0.00%     40.63% # attempts to use FU when none available
system.switch_cpus0.iq.fu_full::FloatCvt            0      0.00%     40.63% # attempts to use FU when none available
system.switch_cpus0.iq.fu_full::FloatMult            0      0.00%     40.63% # attempts to use FU when none available
system.switch_cpus0.iq.fu_full::FloatMultAcc            0      0.00%     40.63% # attempts to use FU when none available
system.switch_cpus0.iq.fu_full::FloatDiv            0      0.00%     40.63% # attempts to use FU when none available
system.switch_cpus0.iq.fu_full::FloatMisc            0      0.00%     40.63% # attempts to use FU when none available
system.switch_cpus0.iq.fu_full::FloatSqrt            0      0.00%     40.63% # attempts to use FU when none available
system.switch_cpus0.iq.fu_full::SimdAdd             0      0.00%     40.63% # attempts to use FU when none available
system.switch_cpus0.iq.fu_full::SimdAddAcc            0      0.00%     40.63% # attempts to use FU when none available
system.switch_cpus0.iq.fu_full::SimdAlu             0      0.00%     40.63% # attempts to use FU when none available
system.switch_cpus0.iq.fu_full::SimdCmp             0      0.00%     40.63% # attempts to use FU when none available
system.switch_cpus0.iq.fu_full::SimdCvt             0      0.00%     40.63% # attempts to use FU when none available
system.switch_cpus0.iq.fu_full::SimdMisc            0      0.00%     40.63% # attempts to use FU when none available
system.switch_cpus0.iq.fu_full::SimdMult            0      0.00%     40.63% # attempts to use FU when none available
system.switch_cpus0.iq.fu_full::SimdMultAcc            0      0.00%     40.63% # attempts to use FU when none available
system.switch_cpus0.iq.fu_full::SimdShift            0      0.00%     40.63% # attempts to use FU when none available
system.switch_cpus0.iq.fu_full::SimdShiftAcc            0      0.00%     40.63% # attempts to use FU when none available
system.switch_cpus0.iq.fu_full::SimdDiv             0      0.00%     40.63% # attempts to use FU when none available
system.switch_cpus0.iq.fu_full::SimdSqrt            0      0.00%     40.63% # attempts to use FU when none available
system.switch_cpus0.iq.fu_full::SimdFloatAdd            0      0.00%     40.63% # attempts to use FU when none available
system.switch_cpus0.iq.fu_full::SimdFloatAlu            0      0.00%     40.63% # attempts to use FU when none available
system.switch_cpus0.iq.fu_full::SimdFloatCmp            0      0.00%     40.63% # attempts to use FU when none available
system.switch_cpus0.iq.fu_full::SimdFloatCvt            0      0.00%     40.63% # attempts to use FU when none available
system.switch_cpus0.iq.fu_full::SimdFloatDiv            0      0.00%     40.63% # attempts to use FU when none available
system.switch_cpus0.iq.fu_full::SimdFloatMisc            0      0.00%     40.63% # attempts to use FU when none available
system.switch_cpus0.iq.fu_full::SimdFloatMult            0      0.00%     40.63% # attempts to use FU when none available
system.switch_cpus0.iq.fu_full::SimdFloatMultAcc            0      0.00%     40.63% # attempts to use FU when none available
system.switch_cpus0.iq.fu_full::SimdFloatSqrt            0      0.00%     40.63% # attempts to use FU when none available
system.switch_cpus0.iq.fu_full::SimdReduceAdd            0      0.00%     40.63% # attempts to use FU when none available
system.switch_cpus0.iq.fu_full::SimdReduceAlu            0      0.00%     40.63% # attempts to use FU when none available
system.switch_cpus0.iq.fu_full::SimdReduceCmp            0      0.00%     40.63% # attempts to use FU when none available
system.switch_cpus0.iq.fu_full::SimdFloatReduceAdd            0      0.00%     40.63% # attempts to use FU when none available
system.switch_cpus0.iq.fu_full::SimdFloatReduceCmp            0      0.00%     40.63% # attempts to use FU when none available
system.switch_cpus0.iq.fu_full::SimdAes             0      0.00%     40.63% # attempts to use FU when none available
system.switch_cpus0.iq.fu_full::SimdAesMix            0      0.00%     40.63% # attempts to use FU when none available
system.switch_cpus0.iq.fu_full::SimdSha1Hash            0      0.00%     40.63% # attempts to use FU when none available
system.switch_cpus0.iq.fu_full::SimdSha1Hash2            0      0.00%     40.63% # attempts to use FU when none available
system.switch_cpus0.iq.fu_full::SimdSha256Hash            0      0.00%     40.63% # attempts to use FU when none available
system.switch_cpus0.iq.fu_full::SimdSha256Hash2            0      0.00%     40.63% # attempts to use FU when none available
system.switch_cpus0.iq.fu_full::SimdShaSigma2            0      0.00%     40.63% # attempts to use FU when none available
system.switch_cpus0.iq.fu_full::SimdShaSigma3            0      0.00%     40.63% # attempts to use FU when none available
system.switch_cpus0.iq.fu_full::SimdPredAlu            0      0.00%     40.63% # attempts to use FU when none available
system.switch_cpus0.iq.fu_full::MemRead        338517      4.31%     44.94% # attempts to use FU when none available
system.switch_cpus0.iq.fu_full::MemWrite      1554870     19.79%     64.73% # attempts to use FU when none available
system.switch_cpus0.iq.fu_full::FloatMemRead      1937392     24.66%     89.38% # attempts to use FU when none available
system.switch_cpus0.iq.fu_full::FloatMemWrite       834162     10.62%    100.00% # attempts to use FU when none available
system.switch_cpus0.iq.fu_full::IprAccess            0      0.00%    100.00% # attempts to use FU when none available
system.switch_cpus0.iq.fu_full::InstPrefetch            0      0.00%    100.00% # attempts to use FU when none available
system.switch_cpus0.iq.int_alu_accesses     488632803                       # Number of integer alu accesses
system.switch_cpus0.iq.int_inst_queue_reads   1198870304                       # Number of integer instruction queue reads
system.switch_cpus0.iq.int_inst_queue_wakeup_accesses    475932751                       # Number of integer instruction queue wakeup accesses
system.switch_cpus0.iq.int_inst_queue_writes    857677292                       # Number of integer instruction queue writes
system.switch_cpus0.iq.iqInstsAdded         622570992                       # Number of instructions added to the IQ (excludes non-spec)
system.switch_cpus0.iq.iqInstsIssued        499514362                       # Number of instructions issued
system.switch_cpus0.iq.iqNonSpecInstsAdded        13217                       # Number of non-speculative instructions added to the IQ
system.switch_cpus0.iq.iqSquashedInstsExamined    259839453                       # Number of squashed instructions iterated over during squash; mainly for profiling
system.switch_cpus0.iq.iqSquashedInstsIssued       218341                       # Number of squashed instructions issued
system.switch_cpus0.iq.iqSquashedNonSpecRemoved        12619                       # Number of squashed non-spec instructions that were removed
system.switch_cpus0.iq.iqSquashedOperandsExamined    409630364                       # Number of squashed operands that are examined and possibly removed from graph
system.switch_cpus0.iq.issued_per_cycle::samples    220191140                       # Number of insts issued each cycle
system.switch_cpus0.iq.issued_per_cycle::mean     2.268549                       # Number of insts issued each cycle
system.switch_cpus0.iq.issued_per_cycle::stdev     2.224824                       # Number of insts issued each cycle
system.switch_cpus0.iq.issued_per_cycle::underflows            0      0.00%      0.00% # Number of insts issued each cycle
system.switch_cpus0.iq.issued_per_cycle::0     78443914     35.63%     35.63% # Number of insts issued each cycle
system.switch_cpus0.iq.issued_per_cycle::1     21310055      9.68%     45.30% # Number of insts issued each cycle
system.switch_cpus0.iq.issued_per_cycle::2     24463004     11.11%     56.41% # Number of insts issued each cycle
system.switch_cpus0.iq.issued_per_cycle::3     29263028     13.29%     69.70% # Number of insts issued each cycle
system.switch_cpus0.iq.issued_per_cycle::4     27126341     12.32%     82.02% # Number of insts issued each cycle
system.switch_cpus0.iq.issued_per_cycle::5     17345028      7.88%     89.90% # Number of insts issued each cycle
system.switch_cpus0.iq.issued_per_cycle::6     12226889      5.55%     95.45% # Number of insts issued each cycle
system.switch_cpus0.iq.issued_per_cycle::7      7205671      3.27%     98.73% # Number of insts issued each cycle
system.switch_cpus0.iq.issued_per_cycle::8      2807210      1.27%    100.00% # Number of insts issued each cycle
system.switch_cpus0.iq.issued_per_cycle::overflows            0      0.00%    100.00% # Number of insts issued each cycle
system.switch_cpus0.iq.issued_per_cycle::min_value            0                       # Number of insts issued each cycle
system.switch_cpus0.iq.issued_per_cycle::max_value            8                       # Number of insts issued each cycle
system.switch_cpus0.iq.issued_per_cycle::total    220191140                       # Number of insts issued each cycle
system.switch_cpus0.iq.rate                  2.268045                       # Inst issue rate
system.switch_cpus0.iq.vec_alu_accesses             0                       # Number of vector alu accesses
system.switch_cpus0.iq.vec_inst_queue_reads            0                       # Number of vector instruction queue reads
system.switch_cpus0.iq.vec_inst_queue_wakeup_accesses            0                       # Number of vector instruction queue wakeup accesses
system.switch_cpus0.iq.vec_inst_queue_writes            0                       # Number of vector instruction queue writes
system.switch_cpus0.memDep0.conflictingLoads     10430147                       # Number of conflicting loads.
system.switch_cpus0.memDep0.conflictingStores       629854                       # Number of conflicting stores.
system.switch_cpus0.memDep0.insertedLoads     69490229                       # Number of loads inserted to the mem dependence unit.
system.switch_cpus0.memDep0.insertedStores     37376446                       # Number of stores inserted to the mem dependence unit.
system.switch_cpus0.misc_regfile_reads      175944002                       # number of misc regfile reads
system.switch_cpus0.misc_regfile_writes             1                       # number of misc regfile writes
system.switch_cpus0.numCycles               220240064                       # number of cpu cycles simulated
system.switch_cpus0.numWorkItemsCompleted            0                       # number of work items this cpu completed
system.switch_cpus0.numWorkItemsStarted             0                       # number of work items this cpu started
system.switch_cpus0.timesIdled                    226                       # Number of times that the entire CPU went into an idle state and unscheduled itself
system.switch_cpus1.cc_regfile_reads        213993382                       # number of cc regfile reads
system.switch_cpus1.cc_regfile_writes       252657706                       # number of cc regfile writes
system.switch_cpus1.committedInsts          250000001                       # Number of Instructions Simulated
system.switch_cpus1.committedOps            362744697                       # Number of Ops (including micro ops) Simulated
system.switch_cpus1.cpi                      0.880960                       # CPI: Cycles Per Instruction
system.switch_cpus1.cpi_total                0.880960                       # CPI: Total CPI of All Threads
system.switch_cpus1.fp_regfile_reads          6381780                       # number of floating regfile reads
system.switch_cpus1.fp_regfile_writes         6349086                       # number of floating regfile writes
system.switch_cpus1.idleCycles                  48919                       # Total number of cycles that the CPU has spent unscheduled due to idling
system.switch_cpus1.iew.branchMispredicts      3375634                       # Number of branch mispredicts detected at execute
system.switch_cpus1.iew.exec_branches        39344536                       # Number of branches executed
system.switch_cpus1.iew.exec_nop                    0                       # number of nop insts executed
system.switch_cpus1.iew.exec_rate            2.240346                       # Inst execution rate
system.switch_cpus1.iew.exec_refs            85814310                       # number of memory reference insts executed
system.switch_cpus1.iew.exec_stores          26456831                       # Number of stores executed
system.switch_cpus1.iew.exec_swp                    0                       # number of swp insts executed
system.switch_cpus1.iew.iewBlockCycles       41454334                       # Number of cycles IEW is blocking
system.switch_cpus1.iew.iewDispLoadInsts     69489393                       # Number of dispatched load instructions
system.switch_cpus1.iew.iewDispNonSpecInsts            0                       # Number of dispatched non-speculative instructions
system.switch_cpus1.iew.iewDispSquashedInsts         7640                       # Number of squashed instructions skipped by dispatch
system.switch_cpus1.iew.iewDispStoreInsts     37375861                       # Number of dispatched store instructions
system.switch_cpus1.iew.iewDispatchedInsts    622574456                       # Number of instructions dispatched to IQ
system.switch_cpus1.iew.iewExecLoadInsts     59357479                       # Number of load instructions executed
system.switch_cpus1.iew.iewExecSquashedInsts      6092125                       # Number of squashed instructions skipped in execute
system.switch_cpus1.iew.iewExecutedInsts    493413844                       # Number of executed instructions
system.switch_cpus1.iew.iewIQFullEvents        135870                       # Number of times the IQ has become full, causing a stall
system.switch_cpus1.iew.iewIdleCycles               0                       # Number of cycles IEW is idle
system.switch_cpus1.iew.iewLSQFullEvents       672593                       # Number of times the LSQ has become full, causing a stall
system.switch_cpus1.iew.iewSquashCycles       3297225                       # Number of cycles IEW is squashing
system.switch_cpus1.iew.iewUnblockCycles       790344                       # Number of cycles IEW is unblocking
system.switch_cpus1.iew.memOrderViolationEvents        19519                       # Number of memory order violations
system.switch_cpus1.iew.predictedNotTakenIncorrect      1332112                       # Number of branches that were predicted not taken incorrectly
system.switch_cpus1.iew.predictedTakenIncorrect      2043522                       # Number of branches that were predicted taken incorrectly
system.switch_cpus1.iew.wb_consumers        720060505                       # num instructions consuming a value
system.switch_cpus1.iew.wb_count            488636249                       # cumulative count of insts written-back
system.switch_cpus1.iew.wb_fanout            0.543071                       # average fanout of values written-back
system.switch_cpus1.iew.wb_producers        391044302                       # num instructions producing a value
system.switch_cpus1.iew.wb_rate              2.218653                       # insts written-back per cycle
system.switch_cpus1.iew.wb_sent             492870066                       # cumulative count of insts sent to commit
system.switch_cpus1.int_regfile_reads       794300699                       # number of integer regfile reads
system.switch_cpus1.int_regfile_writes      426877888                       # number of integer regfile writes
system.switch_cpus1.ipc                      1.135125                       # IPC: Instructions Per Cycle
system.switch_cpus1.ipc_total                1.135125                       # IPC: Total IPC of All Threads
system.switch_cpus1.iq.FU_type_0::No_OpClass      3143888      0.63%      0.63% # Type of FU issued
system.switch_cpus1.iq.FU_type_0::IntAlu    398564427     79.79%     80.42% # Type of FU issued
system.switch_cpus1.iq.FU_type_0::IntMult      9295941      1.86%     82.28% # Type of FU issued
system.switch_cpus1.iq.FU_type_0::IntDiv            0      0.00%     82.28% # Type of FU issued
system.switch_cpus1.iq.FU_type_0::FloatAdd            0      0.00%     82.28% # Type of FU issued
system.switch_cpus1.iq.FU_type_0::FloatCmp            0      0.00%     82.28% # Type of FU issued
system.switch_cpus1.iq.FU_type_0::FloatCvt            0      0.00%     82.28% # Type of FU issued
system.switch_cpus1.iq.FU_type_0::FloatMult            0      0.00%     82.28% # Type of FU issued
system.switch_cpus1.iq.FU_type_0::FloatMultAcc            0      0.00%     82.28% # Type of FU issued
system.switch_cpus1.iq.FU_type_0::FloatDiv            0      0.00%     82.28% # Type of FU issued
system.switch_cpus1.iq.FU_type_0::FloatMisc            0      0.00%     82.28% # Type of FU issued
system.switch_cpus1.iq.FU_type_0::FloatSqrt            0      0.00%     82.28% # Type of FU issued
system.switch_cpus1.iq.FU_type_0::SimdAdd            0      0.00%     82.28% # Type of FU issued
system.switch_cpus1.iq.FU_type_0::SimdAddAcc            0      0.00%     82.28% # Type of FU issued
system.switch_cpus1.iq.FU_type_0::SimdAlu            0      0.00%     82.28% # Type of FU issued
system.switch_cpus1.iq.FU_type_0::SimdCmp            0      0.00%     82.28% # Type of FU issued
system.switch_cpus1.iq.FU_type_0::SimdCvt            0      0.00%     82.28% # Type of FU issued
system.switch_cpus1.iq.FU_type_0::SimdMisc            0      0.00%     82.28% # Type of FU issued
system.switch_cpus1.iq.FU_type_0::SimdMult            0      0.00%     82.28% # Type of FU issued
system.switch_cpus1.iq.FU_type_0::SimdMultAcc            0      0.00%     82.28% # Type of FU issued
system.switch_cpus1.iq.FU_type_0::SimdShift            0      0.00%     82.28% # Type of FU issued
system.switch_cpus1.iq.FU_type_0::SimdShiftAcc            0      0.00%     82.28% # Type of FU issued
system.switch_cpus1.iq.FU_type_0::SimdDiv            0      0.00%     82.28% # Type of FU issued
system.switch_cpus1.iq.FU_type_0::SimdSqrt            0      0.00%     82.28% # Type of FU issued
system.switch_cpus1.iq.FU_type_0::SimdFloatAdd            0      0.00%     82.28% # Type of FU issued
system.switch_cpus1.iq.FU_type_0::SimdFloatAlu            0      0.00%     82.28% # Type of FU issued
system.switch_cpus1.iq.FU_type_0::SimdFloatCmp            0      0.00%     82.28% # Type of FU issued
system.switch_cpus1.iq.FU_type_0::SimdFloatCvt            0      0.00%     82.28% # Type of FU issued
system.switch_cpus1.iq.FU_type_0::SimdFloatDiv            0      0.00%     82.28% # Type of FU issued
system.switch_cpus1.iq.FU_type_0::SimdFloatMisc            0      0.00%     82.28% # Type of FU issued
system.switch_cpus1.iq.FU_type_0::SimdFloatMult            0      0.00%     82.28% # Type of FU issued
system.switch_cpus1.iq.FU_type_0::SimdFloatMultAcc            0      0.00%     82.28% # Type of FU issued
system.switch_cpus1.iq.FU_type_0::SimdFloatSqrt            0      0.00%     82.28% # Type of FU issued
system.switch_cpus1.iq.FU_type_0::SimdReduceAdd            0      0.00%     82.28% # Type of FU issued
system.switch_cpus1.iq.FU_type_0::SimdReduceAlu            0      0.00%     82.28% # Type of FU issued
system.switch_cpus1.iq.FU_type_0::SimdReduceCmp            0      0.00%     82.28% # Type of FU issued
system.switch_cpus1.iq.FU_type_0::SimdFloatReduceAdd            0      0.00%     82.28% # Type of FU issued
system.switch_cpus1.iq.FU_type_0::SimdFloatReduceCmp            0      0.00%     82.28% # Type of FU issued
[...]
system.switch_cpus3.commit.numCommittedDist::0     74154408     39.65%     39.65% # Number of insts commited each cycle
system.switch_cpus3.commit.numCommittedDist::1     43595478     23.31%     62.97% # Number of insts commited each cycle
system.switch_cpus3.commit.numCommittedDist::2      9699779      5.19%     68.15% # Number of insts commited each cycle
system.switch_cpus3.commit.numCommittedDist::3     24783809     13.25%     81.41% # Number of insts commited each cycle
system.switch_cpus3.commit.numCommittedDist::4      8352979      4.47%     85.87% # Number of insts commited each cycle
system.switch_cpus3.commit.numCommittedDist::5      4535262      2.43%     88.30% # Number of insts commited each cycle
system.switch_cpus3.commit.numCommittedDist::6      2085606      1.12%     89.41% # Number of insts commited each cycle
system.switch_cpus3.commit.numCommittedDist::7      1747333      0.93%     90.35% # Number of insts commited each cycle
system.switch_cpus3.commit.numCommittedDist::8     18052615      9.65%    100.00% # Number of insts commited each cycle
system.switch_cpus3.commit.numCommittedDist::overflows            0      0.00%    100.00% # Number of insts commited each cycle
system.switch_cpus3.commit.numCommittedDist::min_value            0                       # Number of insts commited each cycle
system.switch_cpus3.commit.numCommittedDist::max_value            8                       # Number of insts commited each cycle
system.switch_cpus3.commit.numCommittedDist::total    187007269                       # Number of insts commited each cycle
system.switch_cpus3.commit.instsCommitted    249900282                       # Number of instructions committed
system.switch_cpus3.commit.opsCommitted     362600576                       # Number of ops (including micro ops) committed
system.switch_cpus3.commit.memRefs           52965810                       # Number of memory references committed
system.switch_cpus3.commit.loads             36984873                       # Number of loads committed
system.switch_cpus3.commit.amos                     0                       # Number of atomic instructions committed
system.switch_cpus3.commit.membars                  0                       # Number of memory barriers committed
system.switch_cpus3.commit.branches          29666198                       # Number of branches committed
system.switch_cpus3.commit.vector                   0                       # Number of committed Vector instructions.
system.switch_cpus3.commit.floating           1295006                       # Number of committed floating point instructions.
system.switch_cpus3.commit.integer          362599180                       # Number of committed integer instructions.
system.switch_cpus3.commit.functionCalls        66808                       # Number of function calls committed.
system.switch_cpus3.commit.committedInstType_0::No_OpClass          668      0.00%      0.00% # Class of committed instruction
system.switch_cpus3.commit.committedInstType_0::IntAlu    300665945     82.92%     82.92% # Class of committed instruction
system.switch_cpus3.commit.committedInstType_0::IntMult      8968153      2.47%     85.39% # Class of committed instruction
system.switch_cpus3.commit.committedInstType_0::IntDiv            0      0.00%     85.39% # Class of committed instruction
system.switch_cpus3.commit.committedInstType_0::FloatAdd            0      0.00%     85.39% # Class of committed instruction
system.switch_cpus3.commit.committedInstType_0::FloatCmp            0      0.00%     85.39% # Class of committed instruction
system.switch_cpus3.commit.committedInstType_0::FloatCvt            0      0.00%     85.39% # Class of committed instruction
system.switch_cpus3.commit.committedInstType_0::FloatMult            0      0.00%     85.39% # Class of committed instruction
system.switch_cpus3.commit.committedInstType_0::FloatMultAcc            0      0.00%     85.39% # Class of committed instruction
system.switch_cpus3.commit.committedInstType_0::FloatDiv            0      0.00%     85.39% # Class of committed instruction
system.switch_cpus3.commit.committedInstType_0::FloatMisc            0      0.00%     85.39% # Class of committed instruction
system.switch_cpus3.commit.committedInstType_0::FloatSqrt            0      0.00%     85.39% # Class of committed instruction
system.switch_cpus3.commit.committedInstType_0::SimdAdd            0      0.00%     85.39% # Class of committed instruction
system.switch_cpus3.commit.committedInstType_0::SimdAddAcc            0      0.00%     85.39% # Class of committed instruction
system.switch_cpus3.commit.committedInstType_0::SimdAlu            0      0.00%     85.39% # Class of committed instruction
system.switch_cpus3.commit.committedInstType_0::SimdCmp            0      0.00%     85.39% # Class of committed instruction
system.switch_cpus3.commit.committedInstType_0::SimdCvt            0      0.00%     85.39% # Class of committed instruction
system.switch_cpus3.commit.committedInstType_0::SimdMisc            0      0.00%     85.39% # Class of committed instruction
system.switch_cpus3.commit.committedInstType_0::SimdMult            0      0.00%     85.39% # Class of committed instruction
system.switch_cpus3.commit.committedInstType_0::SimdMultAcc            0      0.00%     85.39% # Class of committed instruction
system.switch_cpus3.commit.committedInstType_0::SimdShift            0      0.00%     85.39% # Class of committed instruction
system.switch_cpus3.commit.committedInstType_0::SimdShiftAcc            0      0.00%     85.39% # Class of committed instruction
system.switch_cpus3.commit.committedInstType_0::SimdDiv            0      0.00%     85.39% # Class of committed instruction
system.switch_cpus3.commit.committedInstType_0::SimdSqrt            0      0.00%     85.39% # Class of committed instruction
system.switch_cpus3.commit.committedInstType_0::SimdFloatAdd            0      0.00%     85.39% # Class of committed instruction
system.switch_cpus3.commit.committedInstType_0::SimdFloatAlu            0      0.00%     85.39% # Class of committed instruction
system.switch_cpus3.commit.committedInstType_0::SimdFloatCmp            0      0.00%     85.39% # Class of committed instruction
system.switch_cpus3.commit.committedInstType_0::SimdFloatCvt            0      0.00%     85.39% # Class of committed instruction
system.switch_cpus3.commit.committedInstType_0::SimdFloatDiv            0      0.00%     85.39% # Class of committed instruction
system.switch_cpus3.commit.committedInstType_0::SimdFloatMisc            0      0.00%     85.39% # Class of committed instruction
system.switch_cpus3.commit.committedInstType_0::SimdFloatMult            0      0.00%     85.39% # Class of committed instruction
system.switch_cpus3.commit.committedInstType_0::SimdFloatMultAcc            0      0.00%     85.39% # Class of committed instruction
system.switch_cpus3.commit.committedInstType_0::SimdFloatSqrt            0      0.00%     85.39% # Class of committed instruction
system.switch_cpus3.commit.committedInstType_0::SimdReduceAdd            0      0.00%     85.39% # Class of committed instruction
system.switch_cpus3.commit.committedInstType_0::SimdReduceAlu            0      0.00%     85.39% # Class of committed instruction
system.switch_cpus3.commit.committedInstType_0::SimdReduceCmp            0      0.00%     85.39% # Class of committed instruction
system.switch_cpus3.commit.committedInstType_0::SimdFloatReduceAdd            0      0.00%     85.39% # Class of committed instruction
system.switch_cpus3.commit.committedInstType_0::SimdFloatReduceCmp            0      0.00%     85.39% # Class of committed instruction
system.switch_cpus3.commit.committedInstType_0::SimdAes            0      0.00%     85.39% # Class of committed instruction
system.switch_cpus3.commit.committedInstType_0::SimdAesMix            0      0.00%     85.39% # Class of committed instruction
system.switch_cpus3.commit.committedInstType_0::SimdSha1Hash            0      0.00%     85.39% # Class of committed instruction
system.switch_cpus3.commit.committedInstType_0::SimdSha1Hash2            0      0.00%     85.39% # Class of committed instruction
system.switch_cpus3.commit.committedInstType_0::SimdSha256Hash            0      0.00%     85.39% # Class of committed instruction
system.switch_cpus3.commit.committedInstType_0::SimdSha256Hash2            0      0.00%     85.39% # Class of committed instruction
system.switch_cpus3.commit.committedInstType_0::SimdShaSigma2            0      0.00%     85.39% # Class of committed instruction
system.switch_cpus3.commit.committedInstType_0::SimdShaSigma3            0      0.00%     85.39% # Class of committed instruction
system.switch_cpus3.commit.committedInstType_0::SimdPredAlu            0      0.00%     85.39% # Class of committed instruction
system.switch_cpus3.commit.committedInstType_0::MemRead     36337379     10.02%     95.41% # Class of committed instruction
system.switch_cpus3.commit.committedInstType_0::MemWrite     15333425      4.23%     99.64% # Class of committed instruction
system.switch_cpus3.commit.committedInstType_0::FloatMemRead       647494      0.18%     99.82% # Class of committed instruction
system.switch_cpus3.commit.committedInstType_0::FloatMemWrite       647512      0.18%    100.00% # Class of committed instruction
system.switch_cpus3.commit.committedInstType_0::IprAccess            0      0.00%    100.00% # Class of committed instruction
system.switch_cpus3.commit.committedInstType_0::InstPrefetch            0      0.00%    100.00% # Class of committed instruction
system.switch_cpus3.commit.committedInstType_0::total    362600576                       # Class of committed instruction
system.switch_cpus3.commit.commitEligibleSamples     18052615                       # number cycles where commit BW limit reached
system.switch_cpus3.decode.idleCycles        18837993                       # Number of cycles decode is idle
system.switch_cpus3.decode.blockedCycles    105601819                       # Number of cycles decode is blocked
system.switch_cpus3.decode.runCycles         62085614                       # Number of cycles decode is running
system.switch_cpus3.decode.unblockCycles     30368812                       # Number of cycles decode is unblocking
system.switch_cpus3.decode.squashCycles       3296043                       # Number of cycles decode is squashing
system.switch_cpus3.decode.branchResolved     37028150                       # Number of times decode resolved a  branch
system.switch_cpus3.decode.branchMispred         2064                       # Number of times decode detected a branch misprediction
system.switch_cpus3.decode.decodedInsts     668482965                       # Number of instructions handled by decode
system.switch_cpus3.decode.squashedInsts         5110                       # Number of squashed instructions handled by decode
system.switch_cpus3.dtb.rdAccesses           59343665                       # TLB accesses on read requests
system.switch_cpus3.dtb.wrAccesses           26469911                       # TLB accesses on write requests
system.switch_cpus3.dtb.rdMisses                37006                       # TLB misses on read requests
system.switch_cpus3.dtb.wrMisses                 1761                       # TLB misses on write requests
system.switch_cpus3.dtb.walker.power_state.pwrStateResidencyTicks::UNDEFINED 15023786070438                       # Cumulative time (in ticks) in various power states
system.switch_cpus3.fetch.icacheStallCycles      2984362                       # Number of cycles fetch is stalled on an Icache miss
system.switch_cpus3.fetch.insts             509606212                       # Number of instructions fetch has processed
system.switch_cpus3.fetch.branches           59487800                       # Number of branches that fetch encountered
system.switch_cpus3.fetch.predictedBranches     41136936                       # Number of branches that fetch has predicted taken
system.switch_cpus3.fetch.cycles            213906918                       # Number of cycles fetch has run and was not squashing or blocked
system.switch_cpus3.fetch.squashCycles        6596180                       # Number of cycles fetch has spent squashing
system.switch_cpus3.fetch.miscStallCycles           73                       # Number of cycles fetch has spent waiting on interrupts,or bad addresses, or out of MSHRs
system.switch_cpus3.fetch.pendingTrapStallCycles          844                       # Number of stall cycles due to pending traps
system.switch_cpus3.fetch.cacheLines         68144910                       # Number of cache lines fetched
system.switch_cpus3.fetch.icacheSquashes          244                       # Number of outstanding Icache misses that were squashed
system.switch_cpus3.fetch.nisnDist::samples    220190287                       # Number of instructions fetched each cycle (Total)
system.switch_cpus3.fetch.nisnDist::mean     3.412992                       # Number of instructions fetched each cycle (Total)
system.switch_cpus3.fetch.nisnDist::stdev     3.356474                       # Number of instructions fetched each cycle (Total)
system.switch_cpus3.fetch.nisnDist::underflows            0      0.00%      0.00% # Number of instructions fetched each cycle (Total)
system.switch_cpus3.fetch.nisnDist::0        83406560     37.88%     37.88% # Number of instructions fetched each cycle (Total)
system.switch_cpus3.fetch.nisnDist::1        12437365      5.65%     43.53% # Number of instructions fetched each cycle (Total)
system.switch_cpus3.fetch.nisnDist::2        14795104      6.72%     50.25% # Number of instructions fetched each cycle (Total)
system.switch_cpus3.fetch.nisnDist::3        11137512      5.06%     55.31% # Number of instructions fetched each cycle (Total)
system.switch_cpus3.fetch.nisnDist::4        11829432      5.37%     60.68% # Number of instructions fetched each cycle (Total)
system.switch_cpus3.fetch.nisnDist::5        14184009      6.44%     67.12% # Number of instructions fetched each cycle (Total)
system.switch_cpus3.fetch.nisnDist::6         8390054      3.81%     70.93% # Number of instructions fetched each cycle (Total)
system.switch_cpus3.fetch.nisnDist::7         4592626      2.09%     73.02% # Number of instructions fetched each cycle (Total)
system.switch_cpus3.fetch.nisnDist::8        59417625     26.98%    100.00% # Number of instructions fetched each cycle (Total)
system.switch_cpus3.fetch.nisnDist::overflows            0      0.00%    100.00% # Number of instructions fetched each cycle (Total)
system.switch_cpus3.fetch.nisnDist::min_value            0                       # Number of instructions fetched each cycle (Total)
system.switch_cpus3.fetch.nisnDist::max_value            8                       # Number of instructions fetched each cycle (Total)
system.switch_cpus3.fetch.nisnDist::total    220190287                       # Number of instructions fetched each cycle (Total)
system.switch_cpus3.fetch.branchRate         0.270104                       # Number of branch fetches per cycle
system.switch_cpus3.fetch.rate               2.313867                       # Number of inst fetches per cycle
system.switch_cpus3.itb.rdAccesses                  0                       # TLB accesses on read requests
system.switch_cpus3.itb.wrAccesses           68145022                       # TLB accesses on write requests
system.switch_cpus3.itb.rdMisses                    0                       # TLB misses on read requests
system.switch_cpus3.itb.wrMisses                  132                       # TLB misses on write requests
system.switch_cpus3.itb.walker.power_state.pwrStateResidencyTicks::UNDEFINED 15023786070438                       # Cumulative time (in ticks) in various power states
system.switch_cpus3.lsq0.forwLoads            7055053                       # Number of loads that had data forwarded from stores
system.switch_cpus3.lsq0.squashedLoads       32480793                       # Number of loads squashed
system.switch_cpus3.lsq0.ignoredResponses         7066                       # Number of memory responses ignored because the instruction is squashed
system.switch_cpus3.lsq0.memOrderViolation        19583                       # Number of memory ordering violations
system.switch_cpus3.lsq0.squashedStores      21383916                       # Number of stores squashed
system.switch_cpus3.lsq0.rescheduledLoads            7                       # Number of loads that were rescheduled
system.switch_cpus3.lsq0.blockedByCache           721                       # Number of times an access to memory failed due to the cache being blocked
system.switch_cpus3.power_state.pwrStateResidencyTicks::OFF  73339951635                       # Cumulative time (in ticks) in various power states
system.switch_cpus3.rename.squashCycles       3296043                       # Number of cycles rename is squashing
system.switch_cpus3.rename.idleCycles        30875971                       # Number of cycles rename is idle
system.switch_cpus3.rename.blockCycles       48106603                       # Number of cycles rename is blocking
system.switch_cpus3.rename.serializeStallCycles            0                       # count of cycles rename stalledfor serializing inst
system.switch_cpus3.rename.runCycles         79872195                       # Number of cycles rename is running
system.switch_cpus3.rename.unblockCycles     58039469                       # Number of cycles rename is unblocking
system.switch_cpus3.rename.renamedInsts     649900461                       # Number of instructions processed by rename
system.switch_cpus3.rename.ROBFullEvents        40954                       # Number of times rename has blocked due to ROB full
system.switch_cpus3.rename.IQFullEvents      40964271                       # Number of times rename has blocked due to IQ full
system.switch_cpus3.rename.LQFullEvents         39397                       # Number of times rename has blocked due to LQ full
system.switch_cpus3.rename.SQFullEvents      11729845                       # Number of times rename has blocked due to SQ full
system.switch_cpus3.rename.renamedOperands    932253649                       # Number of destination operands rename has renamed
system.switch_cpus3.rename.lookups         1667569276                       # Number of register rename lookups that rename has made
system.switch_cpus3.rename.intLookups      1130215225                       # Number of integer rename lookups
system.switch_cpus3.rename.fpLookups          6603513                       # Number of floating rename lookups
system.switch_cpus3.rename.committedMaps    534221719                       # Number of HB maps that are committed
system.switch_cpus3.rename.undoneMaps       398031789                       # Number of HB maps that are undone due to squashing
system.switch_cpus3.rename.serializing              0                       # count of serializing insts renamed
system.switch_cpus3.rename.tempSerializing            0                       # count of temporary serializing insts renamed
system.switch_cpus3.rename.skidInsts        123987559                       # count of insts added to the skid buffer
system.switch_cpus3.rob.reads               781438306                       # The number of ROB reads
system.switch_cpus3.rob.writes             1265043624                       # The number of ROB writes
system.switch_cpus3.thread0.numInsts        249900282                       # Number of Instructions committed
system.switch_cpus3.thread0.numOps          362600576                       # Number of Ops committed
system.switch_cpus3.thread0.numMemRefs              0                       # Number of Memory References
system.voltage_domain.voltage                       1                       # Voltage in Volts

---------- End Simulation Statistics   ----------
