Command line:
./runscript_pride.sh leela RFM10.BR2.4C 4 2017 --rh_defense --rh_mitigation=RFM --rh_rfm_per_trefi=10 --rh_rfm_blast_radius=2 --rh_rfm_maxacts_per_trefi=79
Global frequency set at 1000000000000 ticks per second
RFM details - rfm_act_threshold: 7, blast_radius: 2, delay_per_rfm: 175000 ps. sample_rate: 0.125000
RH Defense config: RFM, Bus Delay: 0, rfms_per_trefi: 10, rfm_act_threshold: 7, blast_radius: 2,rfm_delay_per_act: 45000 ps.
DRAM config: RowsPerBank: 65536, BanksPerRank: 32, RanksPerChannel: 1
warn: Sockets disabled, not accepting gdb connections
warn: CoherentXBar system.cpu0.mmucache.mmubus has no snooping ports attached!
warn: CoherentXBar system.cpu1.mmucache.mmubus has no snooping ports attached!
warn: CoherentXBar system.cpu2.mmucache.mmubus has no snooping ports attached!
warn: CoherentXBar system.cpu3.mmucache.mmubus has no snooping ports attached!
warn: Checkpoints for file descriptors currently do not work.
warn: Checkpoints for file descriptors currently do not work.
warn: Checkpoints for file descriptors currently do not work.
warn: Checkpoints for file descriptors currently do not work.
gem5 Simulator System.  http://gem5.org
gem5 is copyrighted software; use the --copyright option for details.

gem5 version 20.1.0.5
gem5 compiled Jul 12 2024 12:42:38
gem5 started Jul 22 2024 18:34:37
gem5 executing on a07dda8b130c, pid 89831
command line: /home/user/PrIDE/performance/gem5/build/X86/gem5.opt --outdir=/home/user/PrIDE/performance/gem5/stats/pride_multiprogram_16GBmem_250Mn.SPEC2017.C4/RFM10.BR2.4C/leela /home/user/PrIDE/performance/gem5/configs/example/se_rq_spec_config_multicore.py --redirects /lib64=/home/utils/gcc-6.2.0/lib64 --benchmark=leela --benchmark_stdout=/home/user/PrIDE/performance/gem5/stats/pride_multiprogram_16GBmem_250Mn.SPEC2017.C4/RFM10.BR2.4C/leela/leela.out --benchmark_stderr=/home/user/PrIDE/performance/gem5/stats/pride_multiprogram_16GBmem_250Mn.SPEC2017.C4/RFM10.BR2.4C/leela/leela.err --spec-version=2017 --rh_defense --rh_mitigation=RFM --rh_rfm_per_trefi=10 --rh_rfm_blast_radius=2 --rh_rfm_maxacts_per_trefi=79 --num-cpus=4 --mem-size=16GB --mem-type=DDR5_2400_32x4 --mem-ranks=1 --checkpoint-dir=/home/user/PrIDE/performance/gem5/cpts/multiprogram_16GBmem_25Bn.SPEC2017.C4/leela-1-ref-x86 --checkpoint-restore=25000000000 --at-instruction --cpu-type DerivO3CPU --caches --l2cache --l1d_size=32kB --l1i_size=32kB --l2_size=256kB --l1d_assoc=8 --l1i_assoc=8 --l2_assoc=16 --maxinsts=250000000 --prog-interval=300Hz

info: Standard input is not a terminal, disabling listeners.
Benchmark- 0   leela
Selected benchmark
--> leela
CMD: ['/opt/spec2017/benchspec/CPU/541.leela_r/run/run_base_refrate_gem5_se-m64.0000/leela_r_base.gem5_se-m64', '/opt/spec2017/benchspec/CPU/541.leela_r/run/run_base_refrate_gem5_se-m64.0000/ref.sgf']
CWD: /opt/spec2017/benchspec/CPU/541.leela_r/run/run_base_refrate_gem5_se-m64.0000/
Process stdout file: /home/user/PrIDE/performance/gem5/stats/pride_multiprogram_16GBmem_250Mn.SPEC2017.C4/RFM10.BR2.4C/leela/leela.out_0
Process stderr file: /home/user/PrIDE/performance/gem5/stats/pride_multiprogram_16GBmem_250Mn.SPEC2017.C4/RFM10.BR2.4C/leela/leela.err_0
Benchmark- 1   leela
Selected benchmark
--> leela
CMD: ['/opt/spec2017/benchspec/CPU/541.leela_r/run/run_base_refrate_gem5_se-m64.0000/leela_r_base.gem5_se-m64', '/opt/spec2017/benchspec/CPU/541.leela_r/run/run_base_refrate_gem5_se-m64.0000/ref.sgf']
CWD: /opt/spec2017/benchspec/CPU/541.leela_r/run/run_base_refrate_gem5_se-m64.0000/
Process stdout file: /home/user/PrIDE/performance/gem5/stats/pride_multiprogram_16GBmem_250Mn.SPEC2017.C4/RFM10.BR2.4C/leela/leela.out_1
Process stderr file: /home/user/PrIDE/performance/gem5/stats/pride_multiprogram_16GBmem_250Mn.SPEC2017.C4/RFM10.BR2.4C/leela/leela.err_1
Benchmark- 2   leela
Selected benchmark
--> leela
CMD: ['/opt/spec2017/benchspec/CPU/541.leela_r/run/run_base_refrate_gem5_se-m64.0000/leela_r_base.gem5_se-m64', '/opt/spec2017/benchspec/CPU/541.leela_r/run/run_base_refrate_gem5_se-m64.0000/ref.sgf']
CWD: /opt/spec2017/benchspec/CPU/541.leela_r/run/run_base_refrate_gem5_se-m64.0000/
Process stdout file: /home/user/PrIDE/performance/gem5/stats/pride_multiprogram_16GBmem_250Mn.SPEC2017.C4/RFM10.BR2.4C/leela/leela.out_2
Process stderr file: /home/user/PrIDE/performance/gem5/stats/pride_multiprogram_16GBmem_250Mn.SPEC2017.C4/RFM10.BR2.4C/leela/leela.err_2
Benchmark- 3   leela
Selected benchmark
--> leela
CMD: ['/opt/spec2017/benchspec/CPU/541.leela_r/run/run_base_refrate_gem5_se-m64.0000/leela_r_base.gem5_se-m64', '/opt/spec2017/benchspec/CPU/541.leela_r/run/run_base_refrate_gem5_se-m64.0000/ref.sgf']
CWD: /opt/spec2017/benchspec/CPU/541.leela_r/run/run_base_refrate_gem5_se-m64.0000/
Process stdout file: /home/user/PrIDE/performance/gem5/stats/pride_multiprogram_16GBmem_250Mn.SPEC2017.C4/RFM10.BR2.4C/leela/leela.out_3
Process stderr file: /home/user/PrIDE/performance/gem5/stats/pride_multiprogram_16GBmem_250Mn.SPEC2017.C4/RFM10.BR2.4C/leela/leela.err_3
Workload-0: 
['/opt/spec2017/benchspec/CPU/541.leela_r/run/run_base_refrate_gem5_se-m64.0000/leela_r_base.gem5_se-m64', '/opt/spec2017/benchspec/CPU/541.leela_r/run/run_base_refrate_gem5_se-m64.0000/ref.sgf']
Workload-1: 
['/opt/spec2017/benchspec/CPU/541.leela_r/run/run_base_refrate_gem5_se-m64.0000/leela_r_base.gem5_se-m64', '/opt/spec2017/benchspec/CPU/541.leela_r/run/run_base_refrate_gem5_se-m64.0000/ref.sgf']
Workload-2: 
['/opt/spec2017/benchspec/CPU/541.leela_r/run/run_base_refrate_gem5_se-m64.0000/leela_r_base.gem5_se-m64', '/opt/spec2017/benchspec/CPU/541.leela_r/run/run_base_refrate_gem5_se-m64.0000/ref.sgf']
Workload-3: 
['/opt/spec2017/benchspec/CPU/541.leela_r/run/run_base_refrate_gem5_se-m64.0000/leela_r_base.gem5_se-m64', '/opt/spec2017/benchspec/CPU/541.leela_r/run/run_base_refrate_gem5_se-m64.0000/ref.sgf']
defense_enable:  True  detector:  MG  mitigation:  RFM  threshold:  800
mg_entries:  1700
rfm_maxacts_per_trefi:  79 rfm_per_trefi:  10 rfm_blast_radius:  2
Switch at curTick count:10000
warn: membus.master is deprecated. `master` is now called `mem_side_ports`
warn: No dot file generated. Please install pydot to generate the dot file and pdf.
info: Entering event queue @ 18573644870559.  Starting simulation...
warn: PowerState: Already in the requested power state, request ignored
Switched CPUS @ tick 18573644880559
switching cpus
**** REAL SIMULATION ****
info: Entering event queue @ 18573644880559.  Starting simulation...
warn: MOVNTDQ: Ignoring non-temporal hint, modeling as cacheable!
18576978203892: Event_285: system.switch_cpus3 progress event, total committed:18577618, progress insts committed: 18577618, IPC: 001.8559
18576978203892: Event_284: system.switch_cpus2 progress event, total committed:18577679, progress insts committed: 18577679, IPC: 01.85591
18576978203892: Event_283: system.switch_cpus1 progress event, total committed:18567280, progress insts committed: 18567280, IPC: 01.85487
18576978203892: Event_282: system.switch_cpus0 progress event, total committed:18567282, progress insts committed: 18567282, IPC: 01.85487
18580311537225: Event_282: system.switch_cpus0 progress event, total committed:38290337, progress insts committed: 19723055, IPC: 01.97033
18580311537225: Event_283: system.switch_cpus1 progress event, total committed:38291469, progress insts committed: 19724189, IPC: 01.97045
18580311537225: Event_284: system.switch_cpus2 progress event, total committed:38301044, progress insts committed: 19723365, IPC: 01.97036
18580311537225: Event_285: system.switch_cpus3 progress event, total committed:38301093, progress insts committed: 19723475, IPC: 01.97038
18583644870558: Event_285: system.switch_cpus3 progress event, total committed:58088149, progress insts committed: 19787056, IPC: 01.97673
18583644870558: Event_284: system.switch_cpus2 progress event, total committed:58088092, progress insts committed: 19787048, IPC: 01.97673
18583644870558: Event_283: system.switch_cpus1 progress event, total committed:58063847, progress insts committed: 19772378, IPC: 01.97526
18583644870558: Event_282: system.switch_cpus0 progress event, total committed:58063811, progress insts committed: 19773474, IPC: 01.97537
18586978203891: Event_282: system.switch_cpus0 progress event, total committed:77933155, progress insts committed: 19869344, IPC: 01.98495
18586978203891: Event_283: system.switch_cpus1 progress event, total committed:77933158, progress insts committed: 19869311, IPC: 01.98494
18586978203891: Event_284: system.switch_cpus2 progress event, total committed:77959244, progress insts committed: 19871152, IPC: 01.98513
18586978203891: Event_285: system.switch_cpus3 progress event, total committed:77959280, progress insts committed: 19871131, IPC: 01.98513
18590311537224: Event_285: system.switch_cpus3 progress event, total committed:97980825, progress insts committed: 20021545, IPC: 02.00015
18590311537224: Event_284: system.switch_cpus2 progress event, total committed:97980752, progress insts committed: 20021508, IPC: 02.00015
18590311537224: Event_283: system.switch_cpus1 progress event, total committed:97951870, progress insts committed: 20018712, IPC: 01.99987
18590311537224: Event_282: system.switch_cpus0 progress event, total committed:97951894, progress insts committed: 20018739, IPC: 01.99987
18593644870557: Event_282: system.switch_cpus0 progress event, total committed:114819422, progress insts committed: 16867528, IPC: 01.68507
18593644870557: Event_283: system.switch_cpus1 progress event, total committed:114824796, progress insts committed: 16872926, IPC: 01.68561
18593644870557: Event_284: system.switch_cpus2 progress event, total committed:114842302, progress insts committed: 16861550, IPC: 01.68447
18593644870557: Event_285: system.switch_cpus3 progress event, total committed:114841973, progress insts committed: 16861148, IPC: 01.68443
18596978203890: Event_285: system.switch_cpus3 progress event, total committed:134829646, progress insts committed: 19987673, IPC: 01.99677
18596978203890: Event_284: system.switch_cpus2 progress event, total committed:134817093, progress insts committed: 19974791, IPC: 01.99548
18596978203890: Event_283: system.switch_cpus1 progress event, total committed:134816559, progress insts committed: 19991763, IPC: 01.99718
18596978203890: Event_282: system.switch_cpus0 progress event, total committed:134816356, progress insts committed: 19996934, IPC: 01.99769
18600311537223: Event_282: system.switch_cpus0 progress event, total committed:154656439, progress insts committed: 19840083, IPC: 01.98202
18600311537223: Event_283: system.switch_cpus1 progress event, total committed:154656292, progress insts committed: 19839733, IPC: 01.98199
18600311537223: Event_284: system.switch_cpus2 progress event, total committed:154645627, progress insts committed: 19828534, IPC: 01.98087
18600311537223: Event_285: system.switch_cpus3 progress event, total committed:154671674, progress insts committed: 19842028, IPC: 01.98222
18603644870556: Event_285: system.switch_cpus3 progress event, total committed:174641277, progress insts committed: 19969603, IPC: 01.99496
18603644870556: Event_284: system.switch_cpus2 progress event, total committed:174618124, progress insts committed: 19972497, IPC: 01.99525
18603644870556: Event_283: system.switch_cpus1 progress event, total committed:174630340, progress insts committed: 19974048, IPC: 01.99541
18603644870556: Event_282: system.switch_cpus0 progress event, total committed:174628207, progress insts committed: 19971768, IPC: 01.99518
18606978203889: Event_282: system.switch_cpus0 progress event, total committed:194568151, progress insts committed: 19939944, IPC: 0001.992
18606978203889: Event_283: system.switch_cpus1 progress event, total committed:194571863, progress insts committed: 19941523, IPC: 01.99216
18606978203889: Event_284: system.switch_cpus2 progress event, total committed:194562313, progress insts committed: 19944189, IPC: 01.99242
18606978203889: Event_285: system.switch_cpus3 progress event, total committed:194574578, progress insts committed: 19933301, IPC: 01.99134
18610311537222: Event_285: system.switch_cpus3 progress event, total committed:214451645, progress insts committed: 19877067, IPC: 01.98572
18610311537222: Event_284: system.switch_cpus2 progress event, total committed:214432021, progress insts committed: 19869708, IPC: 01.98498
18610311537222: Event_283: system.switch_cpus1 progress event, total committed:214450452, progress insts committed: 19878589, IPC: 01.98587
18610311537222: Event_282: system.switch_cpus0 progress event, total committed:214443357, progress insts committed: 19875206, IPC: 01.98553
18613644870555: Event_282: system.switch_cpus0 progress event, total committed:234429921, progress insts committed: 19986564, IPC: 01.99666
18613644870555: Event_283: system.switch_cpus1 progress event, total committed:234430608, progress insts committed: 19980156, IPC: 01.99602
18613644870555: Event_284: system.switch_cpus2 progress event, total committed:234413287, progress insts committed: 19981266, IPC: 01.99613
18613644870555: Event_285: system.switch_cpus3 progress event, total committed:234436896, progress insts committed: 19985251, IPC: 01.99653
18616978203888: Event_285: system.switch_cpus3 progress event, total committed:254503990, progress insts committed: 20067094, IPC: 002.0047
18616978203888: Event_284: system.switch_cpus2 progress event, total committed:254486205, progress insts committed: 20072918, IPC: 02.00528
18616978203888: Event_283: system.switch_cpus1 progress event, total committed:254504893, progress insts committed: 20074285, IPC: 02.00542
18616978203888: Event_282: system.switch_cpus0 progress event, total committed:254500134, progress insts committed: 20070213, IPC: 02.00501
18620311537221: Event_282: system.switch_cpus0 progress event, total committed:274427869, progress insts committed: 19927735, IPC: 01.99078
18620311537221: Event_283: system.switch_cpus1 progress event, total committed:274429479, progress insts committed: 19924586, IPC: 01.99047
18620311537221: Event_284: system.switch_cpus2 progress event, total committed:274407702, progress insts committed: 19921497, IPC: 01.99016
18620311537221: Event_285: system.switch_cpus3 progress event, total committed:274425998, progress insts committed: 19922008, IPC: 01.99021
18623644870554: Event_285: system.switch_cpus3 progress event, total committed:294405929, progress insts committed: 19979931, IPC: 0001.996
18623644870554: Event_284: system.switch_cpus2 progress event, total committed:294398078, progress insts committed: 19990376, IPC: 01.99704
18623644870554: Event_283: system.switch_cpus1 progress event, total committed:294414755, progress insts committed: 19985276, IPC: 01.99653
18623644870554: Event_282: system.switch_cpus0 progress event, total committed:294412257, progress insts committed: 19984388, IPC: 01.99644
18626978203887: Event_282: system.switch_cpus0 progress event, total committed:314400725, progress insts committed: 19988468, IPC: 01.99685
18626978203887: Event_283: system.switch_cpus1 progress event, total committed:314409696, progress insts committed: 19994941, IPC: 01.99749
18626978203887: Event_284: system.switch_cpus2 progress event, total committed:314386546, progress insts committed: 19988468, IPC: 01.99685
18626978203887: Event_285: system.switch_cpus3 progress event, total committed:314392701, progress insts committed: 19986772, IPC: 01.99668
18630311537220: Event_285: system.switch_cpus3 progress event, total committed:334299546, progress insts committed: 19906845, IPC: 01.98869
18630311537220: Event_284: system.switch_cpus2 progress event, total committed:334299253, progress insts committed: 19912707, IPC: 01.98928
18630311537220: Event_283: system.switch_cpus1 progress event, total committed:334319905, progress insts committed: 19910209, IPC: 01.98903
18630311537220: Event_282: system.switch_cpus0 progress event, total committed:334309309, progress insts committed: 19908584, IPC: 01.98887
18633644870553: Event_282: system.switch_cpus0 progress event, total committed:354264158, progress insts committed: 19954849, IPC: 01.99349
18633644870553: Event_283: system.switch_cpus1 progress event, total committed:354284227, progress insts committed: 19964322, IPC: 01.99444
18633644870553: Event_284: system.switch_cpus2 progress event, total committed:354266727, progress insts committed: 19967474, IPC: 01.99475
18633644870553: Event_285: system.switch_cpus3 progress event, total committed:354253487, progress insts committed: 19953941, IPC: 001.9934
18636978203886: Event_285: system.switch_cpus3 progress event, total committed:374281910, progress insts committed: 20028423, IPC: 02.00084
18636978203886: Event_284: system.switch_cpus2 progress event, total committed:374285776, progress insts committed: 20019049, IPC: 001.9999
18636978203886: Event_283: system.switch_cpus1 progress event, total committed:374306236, progress insts committed: 20022009, IPC: 002.0002
18636978203886: Event_282: system.switch_cpus0 progress event, total committed:374292201, progress insts committed: 20028043, IPC: 002.0008
18640311537219: Event_282: system.switch_cpus0 progress event, total committed:394124405, progress insts committed: 19832204, IPC: 01.98124
18640311537219: Event_283: system.switch_cpus1 progress event, total committed:394151534, progress insts committed: 19845298, IPC: 01.98255
18640311537219: Event_284: system.switch_cpus2 progress event, total committed:394123821, progress insts committed: 19838045, IPC: 01.98182
18640311537219: Event_285: system.switch_cpus3 progress event, total committed:394115150, progress insts committed: 19833240, IPC: 01.98134
18643644870552: Event_285: system.switch_cpus3 progress event, total committed:414023405, progress insts committed: 19908255, IPC: 01.98883
18643644870552: Event_284: system.switch_cpus2 progress event, total committed:414035499, progress insts committed: 19911678, IPC: 01.98918
18643644870552: Event_283: system.switch_cpus1 progress event, total committed:414056174, progress insts committed: 19904640, IPC: 01.98847
18643644870552: Event_282: system.switch_cpus0 progress event, total committed:414032983, progress insts committed: 19908578, IPC: 01.98887
18646978203885: Event_282: system.switch_cpus0 progress event, total committed:434019623, progress insts committed: 19986640, IPC: 01.99667
18646978203885: Event_283: system.switch_cpus1 progress event, total committed:434046590, progress insts committed: 19990416, IPC: 01.99704
18646978203885: Event_284: system.switch_cpus2 progress event, total committed:434024952, progress insts committed: 19989453, IPC: 01.99695
18646978203885: Event_285: system.switch_cpus3 progress event, total committed:434022727, progress insts committed: 19999322, IPC: 01.99793
18650311537218: Event_285: system.switch_cpus3 progress event, total committed:454006564, progress insts committed: 19983837, IPC: 01.99639
18650311537218: Event_284: system.switch_cpus2 progress event, total committed:454005939, progress insts committed: 19980987, IPC: 001.9961
18650311537218: Event_283: system.switch_cpus1 progress event, total committed:454021098, progress insts committed: 19974508, IPC: 01.99545
18650311537218: Event_282: system.switch_cpus0 progress event, total committed:453999934, progress insts committed: 19980311, IPC: 01.99603
Exiting @ tick 18651283214832 because a thread reached the max instruction count
