
---------- Begin Simulation Statistics ----------
final_tick                               18651283214832                       # Number of ticks from beginning of simulation (restored from checkpoints and never reset)
host_inst_rate                                 123285                       # Simulator instruction rate (inst/s)
host_mem_usage                               17137432                       # Number of bytes of host memory used
host_op_rate                                   226769                       # Simulator op (including micro ops) rate (op/s)
host_seconds                                  8111.13                       # Real time elapsed on the host
host_tick_rate                                9571824                       # Simulator tick rate (ticks/s)
sim_freq                                 1000000000000                       # Frequency of simulated ticks
sim_insts                                   999978026                       # Number of instructions simulated
sim_ops                                    1839354789                       # Number of ops (including micro ops) simulated
sim_seconds                                  0.077638                       # Number of seconds simulated
sim_ticks                                 77638344273                       # Number of ticks simulated
system.cpu0.committedInsts                         17                       # Number of instructions committed
system.cpu0.committedOps                           22                       # Number of ops (including micro ops) committed
system.cpu0.idle_fraction                           0                       # Percentage of idle cycles
system.cpu0.l2bus.snoop_filter.hit_multi_requests          257                       # Number of requests hitting in the snoop filter with multiple (>1) holders of the requested data.
system.cpu0.l2bus.snoop_filter.hit_multi_snoops            4                       # Number of snoops hitting in the snoop filter with multiple (>1) holders of the requested data.
system.cpu0.l2bus.snoop_filter.hit_single_requests       832798                       # Number of requests hitting in the snoop filter with a single holder of the requested data.
system.cpu0.l2bus.snoop_filter.hit_single_snoops         2941                       # Number of snoops hitting in the snoop filter with a single holder of the requested data.
system.cpu0.l2bus.snoop_filter.tot_requests      1665118                       # Total number of requests made to the snoop filter.
system.cpu0.l2bus.snoop_filter.tot_snoops         2945                       # Total number of snoops made to the snoop filter.
system.cpu0.mmucache.mmubus.snoop_filter.hit_multi_requests            0                       # Number of requests hitting in the snoop filter with multiple (>1) holders of the requested data.
system.cpu0.mmucache.mmubus.snoop_filter.hit_multi_snoops            0                       # Number of snoops hitting in the snoop filter with multiple (>1) holders of the requested data.
system.cpu0.mmucache.mmubus.snoop_filter.hit_single_requests            0                       # Number of requests hitting in the snoop filter with a single holder of the requested data.
system.cpu0.mmucache.mmubus.snoop_filter.hit_single_snoops            0                       # Number of snoops hitting in the snoop filter with a single holder of the requested data.
system.cpu0.mmucache.mmubus.snoop_filter.tot_requests            0                       # Total number of requests made to the snoop filter.
system.cpu0.mmucache.mmubus.snoop_filter.tot_snoops            0                       # Total number of snoops made to the snoop filter.
system.cpu0.not_idle_fraction                       1                       # Percentage of non-idle cycles
system.cpu0.numCycles                              30                       # number of cpu cycles simulated
system.cpu0.numWorkItemsCompleted                   0                       # number of work items this cpu completed
system.cpu0.numWorkItemsStarted                     0                       # number of work items this cpu started
system.cpu0.num_busy_cycles                        30                       # Number of busy cycles
system.cpu0.num_cc_register_reads                  19                       # number of times the CC registers were read
system.cpu0.num_cc_register_writes                 20                       # number of times the CC registers were written
system.cpu0.num_conditional_control_insts            0                       # number of instructions that are conditional controls
system.cpu0.num_fp_alu_accesses                     0                       # Number of float alu accesses
system.cpu0.num_fp_insts                            0                       # number of float instructions
system.cpu0.num_fp_register_reads                   0                       # number of times the floating registers were read
system.cpu0.num_fp_register_writes                  0                       # number of times the floating registers were written
system.cpu0.num_func_calls                          0                       # number of times a function call or return occured
system.cpu0.num_idle_cycles                         0                       # Number of idle cycles
system.cpu0.num_int_alu_accesses                   22                       # Number of integer alu accesses
system.cpu0.num_int_insts                          22                       # number of integer instructions
system.cpu0.num_int_register_reads                 51                       # number of times the integer registers were read
system.cpu0.num_int_register_writes                22                       # number of times the integer registers were written
system.cpu0.num_load_insts                          6                       # Number of load instructions
system.cpu0.num_mem_refs                            6                       # number of memory refs
system.cpu0.num_store_insts                         0                       # Number of store instructions
system.cpu0.num_vec_alu_accesses                    0                       # Number of vector alu accesses
system.cpu0.num_vec_insts                           0                       # number of vector instructions
system.cpu0.num_vec_register_reads                  0                       # number of times the vector registers were read
system.cpu0.num_vec_register_writes                 0                       # number of times the vector registers were written
system.cpu0.op_class::No_OpClass                    0      0.00%      0.00% # Class of executed instruction
system.cpu0.op_class::IntAlu                       16     72.73%     72.73% # Class of executed instruction
system.cpu0.op_class::IntMult                       0      0.00%     72.73% # Class of executed instruction
system.cpu0.op_class::IntDiv                        0      0.00%     72.73% # Class of executed instruction
system.cpu0.op_class::FloatAdd                      0      0.00%     72.73% # Class of executed instruction
system.cpu0.op_class::FloatCmp                      0      0.00%     72.73% # Class of executed instruction
system.cpu0.op_class::FloatCvt                      0      0.00%     72.73% # Class of executed instruction
system.cpu0.op_class::FloatMult                     0      0.00%     72.73% # Class of executed instruction
system.cpu0.op_class::FloatMultAcc                  0      0.00%     72.73% # Class of executed instruction
system.cpu0.op_class::FloatDiv                      0      0.00%     72.73% # Class of executed instruction
system.cpu0.op_class::FloatMisc                     0      0.00%     72.73% # Class of executed instruction
system.cpu0.op_class::FloatSqrt                     0      0.00%     72.73% # Class of executed instruction
system.cpu0.op_class::SimdAdd                       0      0.00%     72.73% # Class of executed instruction
system.cpu0.op_class::SimdAddAcc                    0      0.00%     72.73% # Class of executed instruction
system.cpu0.op_class::SimdAlu                       0      0.00%     72.73% # Class of executed instruction
system.cpu0.op_class::SimdCmp                       0      0.00%     72.73% # Class of executed instruction
system.cpu0.op_class::SimdCvt                       0      0.00%     72.73% # Class of executed instruction
system.cpu0.op_class::SimdMisc                      0      0.00%     72.73% # Class of executed instruction
system.cpu0.op_class::SimdMult                      0      0.00%     72.73% # Class of executed instruction
system.cpu0.op_class::SimdMultAcc                   0      0.00%     72.73% # Class of executed instruction
system.cpu0.op_class::SimdShift                     0      0.00%     72.73% # Class of executed instruction
system.cpu0.op_class::SimdShiftAcc                  0      0.00%     72.73% # Class of executed instruction
system.cpu0.op_class::SimdDiv                       0      0.00%     72.73% # Class of executed instruction
system.cpu0.op_class::SimdSqrt                      0      0.00%     72.73% # Class of executed instruction
system.cpu0.op_class::SimdFloatAdd                  0      0.00%     72.73% # Class of executed instruction
system.cpu0.op_class::SimdFloatAlu                  0      0.00%     72.73% # Class of executed instruction
system.cpu0.op_class::SimdFloatCmp                  0      0.00%     72.73% # Class of executed instruction
system.cpu0.op_class::SimdFloatCvt                  0      0.00%     72.73% # Class of executed instruction
system.cpu0.op_class::SimdFloatDiv                  0      0.00%     72.73% # Class of executed instruction
system.cpu0.op_class::SimdFloatMisc                 0      0.00%     72.73% # Class of executed instruction
system.cpu0.op_class::SimdFloatMult                 0      0.00%     72.73% # Class of executed instruction
system.cpu0.op_class::SimdFloatMultAcc              0      0.00%     72.73% # Class of executed instruction
system.cpu0.op_class::SimdFloatSqrt                 0      0.00%     72.73% # Class of executed instruction
system.cpu0.op_class::SimdReduceAdd                 0      0.00%     72.73% # Class of executed instruction
system.cpu0.op_class::SimdReduceAlu                 0      0.00%     72.73% # Class of executed instruction
system.cpu0.op_class::SimdReduceCmp                 0      0.00%     72.73% # Class of executed instruction
system.cpu0.op_class::SimdFloatReduceAdd            0      0.00%     72.73% # Class of executed instruction
system.cpu0.op_class::SimdFloatReduceCmp            0      0.00%     72.73% # Class of executed instruction
system.cpu0.op_class::SimdAes                       0      0.00%     72.73% # Class of executed instruction
system.cpu0.op_class::SimdAesMix                    0      0.00%     72.73% # Class of executed instruction
system.cpu0.op_class::SimdSha1Hash                  0      0.00%     72.73% # Class of executed instruction
system.cpu0.op_class::SimdSha1Hash2                 0      0.00%     72.73% # Class of executed instruction
system.cpu0.op_class::SimdSha256Hash                0      0.00%     72.73% # Class of executed instruction
system.cpu0.op_class::SimdSha256Hash2               0      0.00%     72.73% # Class of executed instruction
system.cpu0.op_class::SimdShaSigma2                 0      0.00%     72.73% # Class of executed instruction
system.cpu0.op_class::SimdShaSigma3                 0      0.00%     72.73% # Class of executed instruction
system.cpu0.op_class::SimdPredAlu                   0      0.00%     72.73% # Class of executed instruction
system.cpu0.op_class::MemRead                       6     27.27%    100.00% # Class of executed instruction
system.cpu0.op_class::MemWrite                      0      0.00%    100.00% # Class of executed instruction
system.cpu0.op_class::FloatMemRead                  0      0.00%    100.00% # Class of executed instruction
system.cpu0.op_class::FloatMemWrite                 0      0.00%    100.00% # Class of executed instruction
system.cpu0.op_class::IprAccess                     0      0.00%    100.00% # Class of executed instruction
system.cpu0.op_class::InstPrefetch                  0      0.00%    100.00% # Class of executed instruction
system.cpu0.op_class::total                        22                       # Class of executed instruction
system.cpu0.workload.numSyscalls                    0                       # Number of system calls
system.cpu1.committedInsts                         17                       # Number of instructions committed
system.cpu1.committedOps                           22                       # Number of ops (including micro ops) committed
system.cpu1.idle_fraction                           0                       # Percentage of idle cycles
system.cpu1.l2bus.snoop_filter.hit_multi_requests          289                       # Number of requests hitting in the snoop filter with multiple (>1) holders of the requested data.
system.cpu1.l2bus.snoop_filter.hit_multi_snoops            0                       # Number of snoops hitting in the snoop filter with multiple (>1) holders of the requested data.
system.cpu1.l2bus.snoop_filter.hit_single_requests       832425                       # Number of requests hitting in the snoop filter with a single holder of the requested data.
system.cpu1.l2bus.snoop_filter.hit_single_snoops         2504                       # Number of snoops hitting in the snoop filter with a single holder of the requested data.
system.cpu1.l2bus.snoop_filter.tot_requests      1664363                       # Total number of requests made to the snoop filter.
system.cpu1.l2bus.snoop_filter.tot_snoops         2504                       # Total number of snoops made to the snoop filter.
system.cpu1.mmucache.mmubus.snoop_filter.hit_multi_requests            0                       # Number of requests hitting in the snoop filter with multiple (>1) holders of the requested data.
system.cpu1.mmucache.mmubus.snoop_filter.hit_multi_snoops            0                       # Number of snoops hitting in the snoop filter with multiple (>1) holders of the requested data.
system.cpu1.mmucache.mmubus.snoop_filter.hit_single_requests            0                       # Number of requests hitting in the snoop filter with a single holder of the requested data.
system.cpu1.mmucache.mmubus.snoop_filter.hit_single_snoops            0                       # Number of snoops hitting in the snoop filter with a single holder of the requested data.
system.cpu1.mmucache.mmubus.snoop_filter.tot_requests            0                       # Total number of requests made to the snoop filter.
system.cpu1.mmucache.mmubus.snoop_filter.tot_snoops            0                       # Total number of snoops made to the snoop filter.
system.cpu1.not_idle_fraction                       1                       # Percentage of non-idle cycles
system.cpu1.numCycles                              30                       # number of cpu cycles simulated
system.cpu1.numWorkItemsCompleted                   0                       # number of work items this cpu completed
system.cpu1.numWorkItemsStarted                     0                       # number of work items this cpu started
system.cpu1.num_busy_cycles                        30                       # Number of busy cycles
system.cpu1.num_cc_register_reads                  19                       # number of times the CC registers were read
system.cpu1.num_cc_register_writes                 20                       # number of times the CC registers were written
system.cpu1.num_conditional_control_insts            0                       # number of instructions that are conditional controls
system.cpu1.num_fp_alu_accesses                     0                       # Number of float alu accesses
system.cpu1.num_fp_insts                            0                       # number of float instructions
system.cpu1.num_fp_register_reads                   0                       # number of times the floating registers were read
system.cpu1.num_fp_register_writes                  0                       # number of times the floating registers were written
system.cpu1.num_func_calls                          0                       # number of times a function call or return occured
system.cpu1.num_idle_cycles                         0                       # Number of idle cycles
system.cpu1.num_int_alu_accesses                   22                       # Number of integer alu accesses
system.cpu1.num_int_insts                          22                       # number of integer instructions
system.cpu1.num_int_register_reads                 51                       # number of times the integer registers were read
system.cpu1.num_int_register_writes                22                       # number of times the integer registers were written
system.cpu1.num_load_insts                          6                       # Number of load instructions
system.cpu1.num_mem_refs                            6                       # number of memory refs
system.cpu1.num_store_insts                         0                       # Number of store instructions
system.cpu1.num_vec_alu_accesses                    0                       # Number of vector alu accesses
system.cpu1.num_vec_insts                           0                       # number of vector instructions
system.cpu1.num_vec_register_reads                  0                       # number of times the vector registers were read
system.cpu1.num_vec_register_writes                 0                       # number of times the vector registers were written
system.cpu1.op_class::No_OpClass                    0      0.00%      0.00% # Class of executed instruction
system.cpu1.op_class::IntAlu                       16     72.73%     72.73% # Class of executed instruction
system.cpu1.op_class::IntMult                       0      0.00%     72.73% # Class of executed instruction
system.cpu1.op_class::IntDiv                        0      0.00%     72.73% # Class of executed instruction
system.cpu1.op_class::FloatAdd                      0      0.00%     72.73% # Class of executed instruction
system.cpu1.op_class::FloatCmp                      0      0.00%     72.73% # Class of executed instruction
system.cpu1.op_class::FloatCvt                      0      0.00%     72.73% # Class of executed instruction
system.cpu1.op_class::FloatMult                     0      0.00%     72.73% # Class of executed instruction
system.cpu1.op_class::FloatMultAcc                  0      0.00%     72.73% # Class of executed instruction
system.cpu1.op_class::FloatDiv                      0      0.00%     72.73% # Class of executed instruction
system.cpu1.op_class::FloatMisc                     0      0.00%     72.73% # Class of executed instruction
system.cpu1.op_class::FloatSqrt                     0      0.00%     72.73% # Class of executed instruction
system.cpu1.op_class::SimdAdd                       0      0.00%     72.73% # Class of executed instruction
system.cpu1.op_class::SimdAddAcc                    0      0.00%     72.73% # Class of executed instruction
system.cpu1.op_class::SimdAlu                       0      0.00%     72.73% # Class of executed instruction
system.cpu1.op_class::SimdCmp                       0      0.00%     72.73% # Class of executed instruction
system.cpu1.op_class::SimdCvt                       0      0.00%     72.73% # Class of executed instruction
system.cpu1.op_class::SimdMisc                      0      0.00%     72.73% # Class of executed instruction
system.cpu1.op_class::SimdMult                      0      0.00%     72.73% # Class of executed instruction
system.cpu1.op_class::SimdMultAcc                   0      0.00%     72.73% # Class of executed instruction
system.cpu1.op_class::SimdShift                     0      0.00%     72.73% # Class of executed instruction
system.cpu1.op_class::SimdShiftAcc                  0      0.00%     72.73% # Class of executed instruction
system.cpu1.op_class::SimdDiv                       0      0.00%     72.73% # Class of executed instruction
system.cpu1.op_class::SimdSqrt                      0      0.00%     72.73% # Class of executed instruction
system.cpu1.op_class::SimdFloatAdd                  0      0.00%     72.73% # Class of executed instruction
system.cpu1.op_class::SimdFloatAlu                  0      0.00%     72.73% # Class of executed instruction
system.cpu1.op_class::SimdFloatCmp                  0      0.00%     72.73% # Class of executed instruction
system.cpu1.op_class::SimdFloatCvt                  0      0.00%     72.73% # Class of executed instruction
system.cpu1.op_class::SimdFloatDiv                  0      0.00%     72.73% # Class of executed instruction
system.cpu1.op_class::SimdFloatMisc                 0      0.00%     72.73% # Class of executed instruction
system.cpu1.op_class::SimdFloatMult                 0      0.00%     72.73% # Class of executed instruction
system.cpu1.op_class::SimdFloatMultAcc              0      0.00%     72.73% # Class of executed instruction
system.cpu1.op_class::SimdFloatSqrt                 0      0.00%     72.73% # Class of executed instruction
system.cpu1.op_class::SimdReduceAdd                 0      0.00%     72.73% # Class of executed instruction
system.cpu1.op_class::SimdReduceAlu                 0      0.00%     72.73% # Class of executed instruction
system.cpu1.op_class::SimdReduceCmp                 0      0.00%     72.73% # Class of executed instruction
system.cpu1.op_class::SimdFloatReduceAdd            0      0.00%     72.73% # Class of executed instruction
system.cpu1.op_class::SimdFloatReduceCmp            0      0.00%     72.73% # Class of executed instruction
system.cpu1.op_class::SimdAes                       0      0.00%     72.73% # Class of executed instruction
system.cpu1.op_class::SimdAesMix                    0      0.00%     72.73% # Class of executed instruction
system.cpu1.op_class::SimdSha1Hash                  0      0.00%     72.73% # Class of executed instruction
system.cpu1.op_class::SimdSha1Hash2                 0      0.00%     72.73% # Class of executed instruction
system.cpu1.op_class::SimdSha256Hash                0      0.00%     72.73% # Class of executed instruction
system.cpu1.op_class::SimdSha256Hash2               0      0.00%     72.73% # Class of executed instruction
system.cpu1.op_class::SimdShaSigma2                 0      0.00%     72.73% # Class of executed instruction
system.cpu1.op_class::SimdShaSigma3                 0      0.00%     72.73% # Class of executed instruction
system.cpu1.op_class::SimdPredAlu                   0      0.00%     72.73% # Class of executed instruction
system.cpu1.op_class::MemRead                       6     27.27%    100.00% # Class of executed instruction
system.cpu1.op_class::MemWrite                      0      0.00%    100.00% # Class of executed instruction
system.cpu1.op_class::FloatMemRead                  0      0.00%    100.00% # Class of executed instruction
system.cpu1.op_class::FloatMemWrite                 0      0.00%    100.00% # Class of executed instruction
system.cpu1.op_class::IprAccess                     0      0.00%    100.00% # Class of executed instruction
system.cpu1.op_class::InstPrefetch                  0      0.00%    100.00% # Class of executed instruction
system.cpu1.op_class::total                        22                       # Class of executed instruction
system.cpu1.workload.numSyscalls                    0                       # Number of system calls
system.cpu2.committedInsts                         17                       # Number of instructions committed
system.cpu2.committedOps                           22                       # Number of ops (including micro ops) committed
system.cpu2.idle_fraction                           0                       # Percentage of idle cycles
system.cpu2.l2bus.snoop_filter.hit_multi_requests          280                       # Number of requests hitting in the snoop filter with multiple (>1) holders of the requested data.
system.cpu2.l2bus.snoop_filter.hit_multi_snoops            2                       # Number of snoops hitting in the snoop filter with multiple (>1) holders of the requested data.
system.cpu2.l2bus.snoop_filter.hit_single_requests       833251                       # Number of requests hitting in the snoop filter with a single holder of the requested data.
system.cpu2.l2bus.snoop_filter.hit_single_snoops         2698                       # Number of snoops hitting in the snoop filter with a single holder of the requested data.
system.cpu2.l2bus.snoop_filter.tot_requests      1665996                       # Total number of requests made to the snoop filter.
system.cpu2.l2bus.snoop_filter.tot_snoops         2700                       # Total number of snoops made to the snoop filter.
system.cpu2.mmucache.mmubus.snoop_filter.hit_multi_requests            0                       # Number of requests hitting in the snoop filter with multiple (>1) holders of the requested data.
system.cpu2.mmucache.mmubus.snoop_filter.hit_multi_snoops            0                       # Number of snoops hitting in the snoop filter with multiple (>1) holders of the requested data.
system.cpu2.mmucache.mmubus.snoop_filter.hit_single_requests            0                       # Number of requests hitting in the snoop filter with a single holder of the requested data.
system.cpu2.mmucache.mmubus.snoop_filter.hit_single_snoops            0                       # Number of snoops hitting in the snoop filter with a single holder of the requested data.
system.cpu2.mmucache.mmubus.snoop_filter.tot_requests            0                       # Total number of requests made to the snoop filter.
system.cpu2.mmucache.mmubus.snoop_filter.tot_snoops            0                       # Total number of snoops made to the snoop filter.
system.cpu2.not_idle_fraction                       1                       # Percentage of non-idle cycles
system.cpu2.numCycles                              30                       # number of cpu cycles simulated
system.cpu2.numWorkItemsCompleted                   0                       # number of work items this cpu completed
system.cpu2.numWorkItemsStarted                     0                       # number of work items this cpu started
system.cpu2.num_busy_cycles                        30                       # Number of busy cycles
system.cpu2.num_cc_register_reads                  19                       # number of times the CC registers were read
system.cpu2.num_cc_register_writes                 20                       # number of times the CC registers were written
system.cpu2.num_conditional_control_insts            0                       # number of instructions that are conditional controls
system.cpu2.num_fp_alu_accesses                     0                       # Number of float alu accesses
system.cpu2.num_fp_insts                            0                       # number of float instructions
system.cpu2.num_fp_register_reads                   0                       # number of times the floating registers were read
system.cpu2.num_fp_register_writes                  0                       # number of times the floating registers were written
system.cpu2.num_func_calls                          0                       # number of times a function call or return occured
system.cpu2.num_idle_cycles                         0                       # Number of idle cycles
system.cpu2.num_int_alu_accesses                   22                       # Number of integer alu accesses
system.cpu2.num_int_insts                          22                       # number of integer instructions
system.cpu2.num_int_register_reads                 51                       # number of times the integer registers were read
system.cpu2.num_int_register_writes                22                       # number of times the integer registers were written
system.cpu2.num_load_insts                          6                       # Number of load instructions
system.cpu2.num_mem_refs                            6                       # number of memory refs
system.cpu2.num_store_insts                         0                       # Number of store instructions
system.cpu2.num_vec_alu_accesses                    0                       # Number of vector alu accesses
system.cpu2.num_vec_insts                           0                       # number of vector instructions
system.cpu2.num_vec_register_reads                  0                       # number of times the vector registers were read
system.cpu2.num_vec_register_writes                 0                       # number of times the vector registers were written
system.cpu2.op_class::No_OpClass                    0      0.00%      0.00% # Class of executed instruction
system.cpu2.op_class::IntAlu                       16     72.73%     72.73% # Class of executed instruction
system.cpu2.op_class::IntMult                       0      0.00%     72.73% # Class of executed instruction
system.cpu2.op_class::IntDiv                        0      0.00%     72.73% # Class of executed instruction
system.cpu2.op_class::FloatAdd                      0      0.00%     72.73% # Class of executed instruction
system.cpu2.op_class::FloatCmp                      0      0.00%     72.73% # Class of executed instruction
system.cpu2.op_class::FloatCvt                      0      0.00%     72.73% # Class of executed instruction
system.cpu2.op_class::FloatMult                     0      0.00%     72.73% # Class of executed instruction
system.cpu2.op_class::FloatMultAcc                  0      0.00%     72.73% # Class of executed instruction
system.cpu2.op_class::FloatDiv                      0      0.00%     72.73% # Class of executed instruction
system.cpu2.op_class::FloatMisc                     0      0.00%     72.73% # Class of executed instruction
system.cpu2.op_class::FloatSqrt                     0      0.00%     72.73% # Class of executed instruction
system.cpu2.op_class::SimdAdd                       0      0.00%     72.73% # Class of executed instruction
system.cpu2.op_class::SimdAddAcc                    0      0.00%     72.73% # Class of executed instruction
system.cpu2.op_class::SimdAlu                       0      0.00%     72.73% # Class of executed instruction
system.cpu2.op_class::SimdCmp                       0      0.00%     72.73% # Class of executed instruction
system.cpu2.op_class::SimdCvt                       0      0.00%     72.73% # Class of executed instruction
system.cpu2.op_class::SimdMisc                      0      0.00%     72.73% # Class of executed instruction
system.cpu2.op_class::SimdMult                      0      0.00%     72.73% # Class of executed instruction
system.cpu2.op_class::SimdMultAcc                   0      0.00%     72.73% # Class of executed instruction
system.cpu2.op_class::SimdShift                     0      0.00%     72.73% # Class of executed instruction
system.cpu2.op_class::SimdShiftAcc                  0      0.00%     72.73% # Class of executed instruction
system.cpu2.op_class::SimdDiv                       0      0.00%     72.73% # Class of executed instruction
system.cpu2.op_class::SimdSqrt                      0      0.00%     72.73% # Class of executed instruction
system.cpu2.op_class::SimdFloatAdd                  0      0.00%     72.73% # Class of executed instruction
system.cpu2.op_class::SimdFloatAlu                  0      0.00%     72.73% # Class of executed instruction
system.cpu2.op_class::SimdFloatCmp                  0      0.00%     72.73% # Class of executed instruction
system.cpu2.op_class::SimdFloatCvt                  0      0.00%     72.73% # Class of executed instruction
system.cpu2.op_class::SimdFloatDiv                  0      0.00%     72.73% # Class of executed instruction
system.cpu2.op_class::SimdFloatMisc                 0      0.00%     72.73% # Class of executed instruction
system.cpu2.op_class::SimdFloatMult                 0      0.00%     72.73% # Class of executed instruction
system.cpu2.op_class::SimdFloatMultAcc              0      0.00%     72.73% # Class of executed instruction
system.cpu2.op_class::SimdFloatSqrt                 0      0.00%     72.73% # Class of executed instruction
system.cpu2.op_class::SimdReduceAdd                 0      0.00%     72.73% # Class of executed instruction
system.cpu2.op_class::SimdReduceAlu                 0      0.00%     72.73% # Class of executed instruction
system.cpu2.op_class::SimdReduceCmp                 0      0.00%     72.73% # Class of executed instruction
system.cpu2.op_class::SimdFloatReduceAdd            0      0.00%     72.73% # Class of executed instruction
system.cpu2.op_class::SimdFloatReduceCmp            0      0.00%     72.73% # Class of executed instruction
system.cpu2.op_class::SimdAes                       0      0.00%     72.73% # Class of executed instruction
system.cpu2.op_class::SimdAesMix                    0      0.00%     72.73% # Class of executed instruction
system.cpu2.op_class::SimdSha1Hash                  0      0.00%     72.73% # Class of executed instruction
system.cpu2.op_class::SimdSha1Hash2                 0      0.00%     72.73% # Class of executed instruction
system.cpu2.op_class::SimdSha256Hash                0      0.00%     72.73% # Class of executed instruction
system.cpu2.op_class::SimdSha256Hash2               0      0.00%     72.73% # Class of executed instruction
system.cpu2.op_class::SimdShaSigma2                 0      0.00%     72.73% # Class of executed instruction
system.cpu2.op_class::SimdShaSigma3                 0      0.00%     72.73% # Class of executed instruction
system.cpu2.op_class::SimdPredAlu                   0      0.00%     72.73% # Class of executed instruction
system.cpu2.op_class::MemRead                       6     27.27%    100.00% # Class of executed instruction
system.cpu2.op_class::MemWrite                      0      0.00%    100.00% # Class of executed instruction
system.cpu2.op_class::FloatMemRead                  0      0.00%    100.00% # Class of executed instruction
system.cpu2.op_class::FloatMemWrite                 0      0.00%    100.00% # Class of executed instruction
system.cpu2.op_class::IprAccess                     0      0.00%    100.00% # Class of executed instruction
system.cpu2.op_class::InstPrefetch                  0      0.00%    100.00% # Class of executed instruction
system.cpu2.op_class::total                        22                       # Class of executed instruction
system.cpu2.workload.numSyscalls                    0                       # Number of system calls
system.cpu3.committedInsts                         17                       # Number of instructions committed
system.cpu3.committedOps                           22                       # Number of ops (including micro ops) committed
system.cpu3.idle_fraction                           0                       # Percentage of idle cycles
system.cpu3.l2bus.snoop_filter.hit_multi_requests          260                       # Number of requests hitting in the snoop filter with multiple (>1) holders of the requested data.
system.cpu3.l2bus.snoop_filter.hit_multi_snoops            0                       # Number of snoops hitting in the snoop filter with multiple (>1) holders of the requested data.
system.cpu3.l2bus.snoop_filter.hit_single_requests       833161                       # Number of requests hitting in the snoop filter with a single holder of the requested data.
system.cpu3.l2bus.snoop_filter.hit_single_snoops         2672                       # Number of snoops hitting in the snoop filter with a single holder of the requested data.
system.cpu3.l2bus.snoop_filter.tot_requests      1665846                       # Total number of requests made to the snoop filter.
system.cpu3.l2bus.snoop_filter.tot_snoops         2672                       # Total number of snoops made to the snoop filter.
system.cpu3.mmucache.mmubus.snoop_filter.hit_multi_requests            0                       # Number of requests hitting in the snoop filter with multiple (>1) holders of the requested data.
system.cpu3.mmucache.mmubus.snoop_filter.hit_multi_snoops            0                       # Number of snoops hitting in the snoop filter with multiple (>1) holders of the requested data.
system.cpu3.mmucache.mmubus.snoop_filter.hit_single_requests            0                       # Number of requests hitting in the snoop filter with a single holder of the requested data.
system.cpu3.mmucache.mmubus.snoop_filter.hit_single_snoops            0                       # Number of snoops hitting in the snoop filter with a single holder of the requested data.
system.cpu3.mmucache.mmubus.snoop_filter.tot_requests            0                       # Total number of requests made to the snoop filter.
system.cpu3.mmucache.mmubus.snoop_filter.tot_snoops            0                       # Total number of snoops made to the snoop filter.
system.cpu3.not_idle_fraction                       1                       # Percentage of non-idle cycles
system.cpu3.numCycles                              30                       # number of cpu cycles simulated
system.cpu3.numWorkItemsCompleted                   0                       # number of work items this cpu completed
system.cpu3.numWorkItemsStarted                     0                       # number of work items this cpu started
system.cpu3.num_busy_cycles                        30                       # Number of busy cycles
system.cpu3.num_cc_register_reads                  19                       # number of times the CC registers were read
system.cpu3.num_cc_register_writes                 20                       # number of times the CC registers were written
system.cpu3.num_conditional_control_insts            0                       # number of instructions that are conditional controls
system.cpu3.num_fp_alu_accesses                     0                       # Number of float alu accesses
system.cpu3.num_fp_insts                            0                       # number of float instructions
system.cpu3.num_fp_register_reads                   0                       # number of times the floating registers were read
system.cpu3.num_fp_register_writes                  0                       # number of times the floating registers were written
system.cpu3.num_func_calls                          0                       # number of times a function call or return occured
system.cpu3.num_idle_cycles                         0                       # Number of idle cycles
system.cpu3.num_int_alu_accesses                   22                       # Number of integer alu accesses
system.cpu3.num_int_insts                          22                       # number of integer instructions
system.cpu3.num_int_register_reads                 51                       # number of times the integer registers were read
system.cpu3.num_int_register_writes                22                       # number of times the integer registers were written
system.cpu3.num_load_insts                          6                       # Number of load instructions
system.cpu3.num_mem_refs                            6                       # number of memory refs
system.cpu3.num_store_insts                         0                       # Number of store instructions
system.cpu3.num_vec_alu_accesses                    0                       # Number of vector alu accesses
system.cpu3.num_vec_insts                           0                       # number of vector instructions
system.cpu3.num_vec_register_reads                  0                       # number of times the vector registers were read
system.cpu3.num_vec_register_writes                 0                       # number of times the vector registers were written
system.cpu3.op_class::No_OpClass                    0      0.00%      0.00% # Class of executed instruction
system.cpu3.op_class::IntAlu                       16     72.73%     72.73% # Class of executed instruction
system.cpu3.op_class::IntMult                       0      0.00%     72.73% # Class of executed instruction
system.cpu3.op_class::IntDiv                        0      0.00%     72.73% # Class of executed instruction
system.cpu3.op_class::FloatAdd                      0      0.00%     72.73% # Class of executed instruction
system.cpu3.op_class::FloatCmp                      0      0.00%     72.73% # Class of executed instruction
system.cpu3.op_class::FloatCvt                      0      0.00%     72.73% # Class of executed instruction
system.cpu3.op_class::FloatMult                     0      0.00%     72.73% # Class of executed instruction
system.cpu3.op_class::FloatMultAcc                  0      0.00%     72.73% # Class of executed instruction
system.cpu3.op_class::FloatDiv                      0      0.00%     72.73% # Class of executed instruction
system.cpu3.op_class::FloatMisc                     0      0.00%     72.73% # Class of executed instruction
system.cpu3.op_class::FloatSqrt                     0      0.00%     72.73% # Class of executed instruction
system.cpu3.op_class::SimdAdd                       0      0.00%     72.73% # Class of executed instruction
system.cpu3.op_class::SimdAddAcc                    0      0.00%     72.73% # Class of executed instruction
system.cpu3.op_class::SimdAlu                       0      0.00%     72.73% # Class of executed instruction
system.cpu3.op_class::SimdCmp                       0      0.00%     72.73% # Class of executed instruction
system.cpu3.op_class::SimdCvt                       0      0.00%     72.73% # Class of executed instruction
system.cpu3.op_class::SimdMisc                      0      0.00%     72.73% # Class of executed instruction
system.cpu3.op_class::SimdMult                      0      0.00%     72.73% # Class of executed instruction
system.cpu3.op_class::SimdMultAcc                   0      0.00%     72.73% # Class of executed instruction
system.cpu3.op_class::SimdShift                     0      0.00%     72.73% # Class of executed instruction
system.cpu3.op_class::SimdShiftAcc                  0      0.00%     72.73% # Class of executed instruction
system.cpu3.op_class::SimdDiv                       0      0.00%     72.73% # Class of executed instruction
system.cpu3.op_class::SimdSqrt                      0      0.00%     72.73% # Class of executed instruction
system.cpu3.op_class::SimdFloatAdd                  0      0.00%     72.73% # Class of executed instruction
system.cpu3.op_class::SimdFloatAlu                  0      0.00%     72.73% # Class of executed instruction
system.cpu3.op_class::SimdFloatCmp                  0      0.00%     72.73% # Class of executed instruction
system.cpu3.op_class::SimdFloatCvt                  0      0.00%     72.73% # Class of executed instruction
system.cpu3.op_class::SimdFloatDiv                  0      0.00%     72.73% # Class of executed instruction
system.cpu3.op_class::SimdFloatMisc                 0      0.00%     72.73% # Class of executed instruction
system.cpu3.op_class::SimdFloatMult                 0      0.00%     72.73% # Class of executed instruction
system.cpu3.op_class::SimdFloatMultAcc              0      0.00%     72.73% # Class of executed instruction
system.cpu3.op_class::SimdFloatSqrt                 0      0.00%     72.73% # Class of executed instruction
system.cpu3.op_class::SimdReduceAdd                 0      0.00%     72.73% # Class of executed instruction
system.cpu3.op_class::SimdReduceAlu                 0      0.00%     72.73% # Class of executed instruction
system.cpu3.op_class::SimdReduceCmp                 0      0.00%     72.73% # Class of executed instruction
system.cpu3.op_class::SimdFloatReduceAdd            0      0.00%     72.73% # Class of executed instruction
system.cpu3.op_class::SimdFloatReduceCmp            0      0.00%     72.73% # Class of executed instruction
system.cpu3.op_class::SimdAes                       0      0.00%     72.73% # Class of executed instruction
system.cpu3.op_class::SimdAesMix                    0      0.00%     72.73% # Class of executed instruction
system.cpu3.op_class::SimdSha1Hash                  0      0.00%     72.73% # Class of executed instruction
system.cpu3.op_class::SimdSha1Hash2                 0      0.00%     72.73% # Class of executed instruction
system.cpu3.op_class::SimdSha256Hash                0      0.00%     72.73% # Class of executed instruction
system.cpu3.op_class::SimdSha256Hash2               0      0.00%     72.73% # Class of executed instruction
system.cpu3.op_class::SimdShaSigma2                 0      0.00%     72.73% # Class of executed instruction
system.cpu3.op_class::SimdShaSigma3                 0      0.00%     72.73% # Class of executed instruction
system.cpu3.op_class::SimdPredAlu                   0      0.00%     72.73% # Class of executed instruction
system.cpu3.op_class::MemRead                       6     27.27%    100.00% # Class of executed instruction
system.cpu3.op_class::MemWrite                      0      0.00%    100.00% # Class of executed instruction
system.cpu3.op_class::FloatMemRead                  0      0.00%    100.00% # Class of executed instruction
system.cpu3.op_class::FloatMemWrite                 0      0.00%    100.00% # Class of executed instruction
system.cpu3.op_class::IprAccess                     0      0.00%    100.00% # Class of executed instruction
system.cpu3.op_class::InstPrefetch                  0      0.00%    100.00% # Class of executed instruction
system.cpu3.op_class::total                        22                       # Class of executed instruction
system.cpu3.workload.numSyscalls                    0                       # Number of system calls
system.l3bus.snoop_filter.hit_multi_requests            0                       # Number of requests hitting in the snoop filter with multiple (>1) holders of the requested data.
system.l3bus.snoop_filter.hit_multi_snoops            0                       # Number of snoops hitting in the snoop filter with multiple (>1) holders of the requested data.
system.l3bus.snoop_filter.hit_single_requests       211220                       # Number of requests hitting in the snoop filter with a single holder of the requested data.
system.l3bus.snoop_filter.hit_single_snoops            0                       # Number of snoops hitting in the snoop filter with a single holder of the requested data.
system.l3bus.snoop_filter.tot_requests         433764                       # Total number of requests made to the snoop filter.
system.l3bus.snoop_filter.tot_snoops                0                       # Total number of snoops made to the snoop filter.
system.membus.snoop_filter.hit_multi_requests            0                       # Number of requests hitting in the snoop filter with multiple (>1) holders of the requested data.
system.membus.snoop_filter.hit_multi_snoops            0                       # Number of snoops hitting in the snoop filter with multiple (>1) holders of the requested data.
system.membus.snoop_filter.hit_single_requests         4033                       # Number of requests hitting in the snoop filter with a single holder of the requested data.
system.membus.snoop_filter.hit_single_snoops            0                       # Number of snoops hitting in the snoop filter with a single holder of the requested data.
system.membus.snoop_filter.tot_requests         66383                       # Total number of requests made to the snoop filter.
system.membus.snoop_filter.tot_snoops               0                       # Total number of snoops made to the snoop filter.
system.switch_cpus0.cc_regfile_reads        318648410                       # number of cc regfile reads
system.switch_cpus0.cc_regfile_writes       224802902                       # number of cc regfile writes
system.switch_cpus0.committedInsts          249991947                       # Number of Instructions Simulated
system.switch_cpus0.committedOps            459834353                       # Number of Ops (including micro ops) Simulated
system.switch_cpus0.cpi                      0.932623                       # CPI: Cycles Per Instruction
system.switch_cpus0.cpi_total                0.932623                       # CPI: Total CPI of All Threads
system.switch_cpus0.fp_regfile_reads          1975559                       # number of floating regfile reads
system.switch_cpus0.fp_regfile_writes         1431597                       # number of floating regfile writes
system.switch_cpus0.idleCycles                 233817                       # Total number of cycles that the CPU has spent unscheduled due to idling
system.switch_cpus0.iew.branchMispredicts      5861563                       # Number of branch mispredicts detected at execute
system.switch_cpus0.iew.exec_branches        60468552                       # Number of branches executed
system.switch_cpus0.iew.exec_nop                    0                       # number of nop insts executed
system.switch_cpus0.iew.exec_rate            2.794711                       # Inst execution rate
system.switch_cpus0.iew.exec_refs           133026526                       # number of memory reference insts executed
system.switch_cpus0.iew.exec_stores          33045605                       # Number of stores executed
system.switch_cpus0.iew.exec_swp                    0                       # number of swp insts executed
system.switch_cpus0.iew.iewBlockCycles       40229605                       # Number of cycles IEW is blocking
system.switch_cpus0.iew.iewDispLoadInsts    123917345                       # Number of dispatched load instructions
system.switch_cpus0.iew.iewDispNonSpecInsts          109                       # Number of dispatched non-speculative instructions
system.switch_cpus0.iew.iewDispSquashedInsts       160070                       # Number of squashed instructions skipped by dispatch
system.switch_cpus0.iew.iewDispStoreInsts     41202437                       # Number of dispatched store instructions
system.switch_cpus0.iew.iewDispatchedInsts    793523215                       # Number of instructions dispatched to IQ
system.switch_cpus0.iew.iewExecLoadInsts     99980921                       # Number of load instructions executed
system.switch_cpus0.iew.iewExecSquashedInsts     11232981                       # Number of squashed instructions skipped in execute
system.switch_cpus0.iew.iewExecutedInsts    651581630                       # Number of executed instructions
system.switch_cpus0.iew.iewIQFullEvents         12979                       # Number of times the IQ has become full, causing a stall
system.switch_cpus0.iew.iewIdleCycles               0                       # Number of cycles IEW is idle
system.switch_cpus0.iew.iewLSQFullEvents       169155                       # Number of times the LSQ has become full, causing a stall
system.switch_cpus0.iew.iewSquashCycles       5213978                       # Number of cycles IEW is squashing
system.switch_cpus0.iew.iewUnblockCycles       181282                       # Number of cycles IEW is unblocking
system.switch_cpus0.iew.memOrderViolationEvents        40594                       # Number of memory order violations
system.switch_cpus0.iew.predictedNotTakenIncorrect      3220255                       # Number of branches that were predicted not taken incorrectly
system.switch_cpus0.iew.predictedTakenIncorrect      2641308                       # Number of branches that were predicted taken incorrectly
system.switch_cpus0.iew.wb_consumers        877922450                       # num instructions consuming a value
system.switch_cpus0.iew.wb_count            646651645                       # cumulative count of insts written-back
system.switch_cpus0.iew.wb_fanout            0.572707                       # average fanout of values written-back
system.switch_cpus0.iew.wb_producers        502792268                       # num instructions producing a value
system.switch_cpus0.iew.wb_rate              2.773565                       # insts written-back per cycle
system.switch_cpus0.iew.wb_sent             650352944                       # cumulative count of insts sent to commit
system.switch_cpus0.int_regfile_reads       996337084                       # number of integer regfile reads
system.switch_cpus0.int_regfile_writes      570982306                       # number of integer regfile writes
system.switch_cpus0.ipc                      1.072245                       # IPC: Instructions Per Cycle
system.switch_cpus0.ipc_total                1.072245                       # IPC: Total IPC of All Threads
system.switch_cpus0.iq.FU_type_0::No_OpClass      3357084      0.51%      0.51% # Type of FU issued
system.switch_cpus0.iq.FU_type_0::IntAlu    511596518     77.19%     77.69% # Type of FU issued
system.switch_cpus0.iq.FU_type_0::IntMult      2777968      0.42%     78.11% # Type of FU issued
system.switch_cpus0.iq.FU_type_0::IntDiv      6876605      1.04%     79.15% # Type of FU issued
system.switch_cpus0.iq.FU_type_0::FloatAdd        48643      0.01%     79.16% # Type of FU issued
system.switch_cpus0.iq.FU_type_0::FloatCmp            0      0.00%     79.16% # Type of FU issued
system.switch_cpus0.iq.FU_type_0::FloatCvt          360      0.00%     79.16% # Type of FU issued
system.switch_cpus0.iq.FU_type_0::FloatMult            0      0.00%     79.16% # Type of FU issued
system.switch_cpus0.iq.FU_type_0::FloatMultAcc            0      0.00%     79.16% # Type of FU issued
system.switch_cpus0.iq.FU_type_0::FloatDiv            0      0.00%     79.16% # Type of FU issued
system.switch_cpus0.iq.FU_type_0::FloatMisc            0      0.00%     79.16% # Type of FU issued
system.switch_cpus0.iq.FU_type_0::FloatSqrt            0      0.00%     79.16% # Type of FU issued
system.switch_cpus0.iq.FU_type_0::SimdAdd            0      0.00%     79.16% # Type of FU issued
system.switch_cpus0.iq.FU_type_0::SimdAddAcc            0      0.00%     79.16% # Type of FU issued
system.switch_cpus0.iq.FU_type_0::SimdAlu        45117      0.01%     79.16% # Type of FU issued
system.switch_cpus0.iq.FU_type_0::SimdCmp            0      0.00%     79.16% # Type of FU issued
system.switch_cpus0.iq.FU_type_0::SimdCvt           24      0.00%     79.16% # Type of FU issued
system.switch_cpus0.iq.FU_type_0::SimdMisc       118300      0.02%     79.18% # Type of FU issued
system.switch_cpus0.iq.FU_type_0::SimdMult            0      0.00%     79.18% # Type of FU issued
system.switch_cpus0.iq.FU_type_0::SimdMultAcc            0      0.00%     79.18% # Type of FU issued
system.switch_cpus0.iq.FU_type_0::SimdShift            0      0.00%     79.18% # Type of FU issued
system.switch_cpus0.iq.FU_type_0::SimdShiftAcc            0      0.00%     79.18% # Type of FU issued
system.switch_cpus0.iq.FU_type_0::SimdDiv            0      0.00%     79.18% # Type of FU issued
system.switch_cpus0.iq.FU_type_0::SimdSqrt            0      0.00%     79.18% # Type of FU issued
system.switch_cpus0.iq.FU_type_0::SimdFloatAdd       113696      0.02%     79.20% # Type of FU issued
system.switch_cpus0.iq.FU_type_0::SimdFloatAlu            0      0.00%     79.20% # Type of FU issued
system.switch_cpus0.iq.FU_type_0::SimdFloatCmp            0      0.00%     79.20% # Type of FU issued
system.switch_cpus0.iq.FU_type_0::SimdFloatCvt       247902      0.04%     79.24% # Type of FU issued
system.switch_cpus0.iq.FU_type_0::SimdFloatDiv         3026      0.00%     79.24% # Type of FU issued
system.switch_cpus0.iq.FU_type_0::SimdFloatMisc            0      0.00%     79.24% # Type of FU issued
system.switch_cpus0.iq.FU_type_0::SimdFloatMult            0      0.00%     79.24% # Type of FU issued
system.switch_cpus0.iq.FU_type_0::SimdFloatMultAcc            0      0.00%     79.24% # Type of FU issued
system.switch_cpus0.iq.FU_type_0::SimdFloatSqrt            0      0.00%     79.24% # Type of FU issued
system.switch_cpus0.iq.FU_type_0::SimdReduceAdd            0      0.00%     79.24% # Type of FU issued
system.switch_cpus0.iq.FU_type_0::SimdReduceAlu            0      0.00%     79.24% # Type of FU issued
system.switch_cpus0.iq.FU_type_0::SimdReduceCmp            0      0.00%     79.24% # Type of FU issued
system.switch_cpus0.iq.FU_type_0::SimdFloatReduceAdd            0      0.00%     79.24% # Type of FU issued
system.switch_cpus0.iq.FU_type_0::SimdFloatReduceCmp            0      0.00%     79.24% # Type of FU issued
system.switch_cpus0.iq.FU_type_0::SimdAes            0      0.00%     79.24% # Type of FU issued
system.switch_cpus0.iq.FU_type_0::SimdAesMix            0      0.00%     79.24% # Type of FU issued
system.switch_cpus0.iq.FU_type_0::SimdSha1Hash            0      0.00%     79.24% # Type of FU issued
system.switch_cpus0.iq.FU_type_0::SimdSha1Hash2            0      0.00%     79.24% # Type of FU issued
system.switch_cpus0.iq.FU_type_0::SimdSha256Hash            0      0.00%     79.24% # Type of FU issued
system.switch_cpus0.iq.FU_type_0::SimdSha256Hash2            0      0.00%     79.24% # Type of FU issued
system.switch_cpus0.iq.FU_type_0::SimdShaSigma2            0      0.00%     79.24% # Type of FU issued
system.switch_cpus0.iq.FU_type_0::SimdShaSigma3            0      0.00%     79.24% # Type of FU issued
system.switch_cpus0.iq.FU_type_0::SimdPredAlu            0      0.00%     79.24% # Type of FU issued
system.switch_cpus0.iq.FU_type_0::MemRead    102539793     15.47%     94.71% # Type of FU issued
system.switch_cpus0.iq.FU_type_0::MemWrite     33166617      5.00%     99.71% # Type of FU issued
system.switch_cpus0.iq.FU_type_0::FloatMemRead      1025396      0.15%     99.86% # Type of FU issued
system.switch_cpus0.iq.FU_type_0::FloatMemWrite       897562      0.14%    100.00% # Type of FU issued
system.switch_cpus0.iq.FU_type_0::IprAccess            0      0.00%    100.00% # Type of FU issued
system.switch_cpus0.iq.FU_type_0::InstPrefetch            0      0.00%    100.00% # Type of FU issued
system.switch_cpus0.iq.FU_type_0::total     662814611                       # Type of FU issued
system.switch_cpus0.iq.fp_alu_accesses        2611227                       # Number of floating point alu accesses
system.switch_cpus0.iq.fp_inst_queue_reads      5133227                       # Number of floating instruction queue reads
system.switch_cpus0.iq.fp_inst_queue_wakeup_accesses      2426742                       # Number of floating instruction queue wakeup accesses
system.switch_cpus0.iq.fp_inst_queue_writes      3910546                       # Number of floating instruction queue writes
system.switch_cpus0.iq.fu_busy_cnt           11701293                       # FU busy when requested
system.switch_cpus0.iq.fu_busy_rate          0.017654                       # FU busy rate (busy events/executed inst)
system.switch_cpus0.iq.fu_full::No_OpClass            0      0.00%      0.00% # attempts to use FU when none available
system.switch_cpus0.iq.fu_full::IntAlu        9742457     83.26%     83.26% # attempts to use FU when none available
system.switch_cpus0.iq.fu_full::IntMult             0      0.00%     83.26% # attempts to use FU when none available
system.switch_cpus0.iq.fu_full::IntDiv              0      0.00%     83.26% # attempts to use FU when none available
system.switch_cpus0.iq.fu_full::FloatAdd            0      0.00%     83.26% # attempts to use FU when none available
system.switch_cpus0.iq.fu_full::FloatCmp            0      0.00%     83.26% # attempts to use FU when none available
system.switch_cpus0.iq.fu_full::FloatCvt            0      0.00%     83.26% # attempts to use FU when none available
system.switch_cpus0.iq.fu_full::FloatMult            0      0.00%     83.26% # attempts to use FU when none available
system.switch_cpus0.iq.fu_full::FloatMultAcc            0      0.00%     83.26% # attempts to use FU when none available
system.switch_cpus0.iq.fu_full::FloatDiv            0      0.00%     83.26% # attempts to use FU when none available
system.switch_cpus0.iq.fu_full::FloatMisc            0      0.00%     83.26% # attempts to use FU when none available
system.switch_cpus0.iq.fu_full::FloatSqrt            0      0.00%     83.26% # attempts to use FU when none available
system.switch_cpus0.iq.fu_full::SimdAdd             0      0.00%     83.26% # attempts to use FU when none available
system.switch_cpus0.iq.fu_full::SimdAddAcc            0      0.00%     83.26% # attempts to use FU when none available
system.switch_cpus0.iq.fu_full::SimdAlu             3      0.00%     83.26% # attempts to use FU when none available
system.switch_cpus0.iq.fu_full::SimdCmp             0      0.00%     83.26% # attempts to use FU when none available
system.switch_cpus0.iq.fu_full::SimdCvt             0      0.00%     83.26% # attempts to use FU when none available
system.switch_cpus0.iq.fu_full::SimdMisc            0      0.00%     83.26% # attempts to use FU when none available
system.switch_cpus0.iq.fu_full::SimdMult            0      0.00%     83.26% # attempts to use FU when none available
system.switch_cpus0.iq.fu_full::SimdMultAcc            0      0.00%     83.26% # attempts to use FU when none available
system.switch_cpus0.iq.fu_full::SimdShift            0      0.00%     83.26% # attempts to use FU when none available
system.switch_cpus0.iq.fu_full::SimdShiftAcc            0      0.00%     83.26% # attempts to use FU when none available
system.switch_cpus0.iq.fu_full::SimdDiv             0      0.00%     83.26% # attempts to use FU when none available
system.switch_cpus0.iq.fu_full::SimdSqrt            0      0.00%     83.26% # attempts to use FU when none available
system.switch_cpus0.iq.fu_full::SimdFloatAdd            0      0.00%     83.26% # attempts to use FU when none available
system.switch_cpus0.iq.fu_full::SimdFloatAlu            0      0.00%     83.26% # attempts to use FU when none available
system.switch_cpus0.iq.fu_full::SimdFloatCmp            0      0.00%     83.26% # attempts to use FU when none available
system.switch_cpus0.iq.fu_full::SimdFloatCvt            0      0.00%     83.26% # attempts to use FU when none available
system.switch_cpus0.iq.fu_full::SimdFloatDiv            0      0.00%     83.26% # attempts to use FU when none available
system.switch_cpus0.iq.fu_full::SimdFloatMisc            0      0.00%     83.26% # attempts to use FU when none available
system.switch_cpus0.iq.fu_full::SimdFloatMult            0      0.00%     83.26% # attempts to use FU when none available
system.switch_cpus0.iq.fu_full::SimdFloatMultAcc            0      0.00%     83.26% # attempts to use FU when none available
system.switch_cpus0.iq.fu_full::SimdFloatSqrt            0      0.00%     83.26% # attempts to use FU when none available
system.switch_cpus0.iq.fu_full::SimdReduceAdd            0      0.00%     83.26% # attempts to use FU when none available
system.switch_cpus0.iq.fu_full::SimdReduceAlu            0      0.00%     83.26% # attempts to use FU when none available
system.switch_cpus0.iq.fu_full::SimdReduceCmp            0      0.00%     83.26% # attempts to use FU when none available
system.switch_cpus0.iq.fu_full::SimdFloatReduceAdd            0      0.00%     83.26% # attempts to use FU when none available
system.switch_cpus0.iq.fu_full::SimdFloatReduceCmp            0      0.00%     83.26% # attempts to use FU when none available
system.switch_cpus0.iq.fu_full::SimdAes             0      0.00%     83.26% # attempts to use FU when none available
system.switch_cpus0.iq.fu_full::SimdAesMix            0      0.00%     83.26% # attempts to use FU when none available
system.switch_cpus0.iq.fu_full::SimdSha1Hash            0      0.00%     83.26% # attempts to use FU when none available
system.switch_cpus0.iq.fu_full::SimdSha1Hash2            0      0.00%     83.26% # attempts to use FU when none available
system.switch_cpus0.iq.fu_full::SimdSha256Hash            0      0.00%     83.26% # attempts to use FU when none available
system.switch_cpus0.iq.fu_full::SimdSha256Hash2            0      0.00%     83.26% # attempts to use FU when none available
system.switch_cpus0.iq.fu_full::SimdShaSigma2            0      0.00%     83.26% # attempts to use FU when none available
system.switch_cpus0.iq.fu_full::SimdShaSigma3            0      0.00%     83.26% # attempts to use FU when none available
system.switch_cpus0.iq.fu_full::SimdPredAlu            0      0.00%     83.26% # attempts to use FU when none available
system.switch_cpus0.iq.fu_full::MemRead       1428515     12.21%     95.47% # attempts to use FU when none available
system.switch_cpus0.iq.fu_full::MemWrite       436712      3.73%     99.20% # attempts to use FU when none available
system.switch_cpus0.iq.fu_full::FloatMemRead        56394      0.48%     99.68% # attempts to use FU when none available
system.switch_cpus0.iq.fu_full::FloatMemWrite        37212      0.32%    100.00% # attempts to use FU when none available
system.switch_cpus0.iq.fu_full::IprAccess            0      0.00%    100.00% # attempts to use FU when none available
system.switch_cpus0.iq.fu_full::InstPrefetch            0      0.00%    100.00% # attempts to use FU when none available
system.switch_cpus0.iq.int_alu_accesses     668547593                       # Number of integer alu accesses
system.switch_cpus0.iq.int_inst_queue_reads   1568411345                       # Number of integer instruction queue reads
system.switch_cpus0.iq.int_inst_queue_wakeup_accesses    644224903                       # Number of integer instruction queue wakeup accesses
system.switch_cpus0.iq.int_inst_queue_writes   1123340446                       # Number of integer instruction queue writes
system.switch_cpus0.iq.iqInstsAdded         793486031                       # Number of instructions added to the IQ (excludes non-spec)
system.switch_cpus0.iq.iqInstsIssued        662814611                       # Number of instructions issued
system.switch_cpus0.iq.iqNonSpecInstsAdded        37184                       # Number of non-speculative instructions added to the IQ
system.switch_cpus0.iq.iqSquashedInstsExamined    333688834                       # Number of squashed instructions iterated over during squash; mainly for profiling
system.switch_cpus0.iq.iqSquashedInstsIssued      3299724                       # Number of squashed instructions issued
system.switch_cpus0.iq.iqSquashedNonSpecRemoved        31788                       # Number of squashed non-spec instructions that were removed
system.switch_cpus0.iq.iqSquashedOperandsExamined    479783844                       # Number of squashed operands that are examined and possibly removed from graph
system.switch_cpus0.iq.issued_per_cycle::samples    232914333                       # Number of insts issued each cycle
system.switch_cpus0.iq.issued_per_cycle::mean     2.845744                       # Number of insts issued each cycle
system.switch_cpus0.iq.issued_per_cycle::stdev     2.614000                       # Number of insts issued each cycle
system.switch_cpus0.iq.issued_per_cycle::underflows            0      0.00%      0.00% # Number of insts issued each cycle
system.switch_cpus0.iq.issued_per_cycle::0     72608337     31.17%     31.17% # Number of insts issued each cycle
system.switch_cpus0.iq.issued_per_cycle::1     22611376      9.71%     40.88% # Number of insts issued each cycle
system.switch_cpus0.iq.issued_per_cycle::2     22244294      9.55%     50.43% # Number of insts issued each cycle
system.switch_cpus0.iq.issued_per_cycle::3     22150324      9.51%     59.94% # Number of insts issued each cycle
system.switch_cpus0.iq.issued_per_cycle::4     23047485      9.90%     69.84% # Number of insts issued each cycle
system.switch_cpus0.iq.issued_per_cycle::5     22291235      9.57%     79.41% # Number of insts issued each cycle
system.switch_cpus0.iq.issued_per_cycle::6     21144727      9.08%     88.49% # Number of insts issued each cycle
system.switch_cpus0.iq.issued_per_cycle::7     15783242      6.78%     95.26% # Number of insts issued each cycle
system.switch_cpus0.iq.issued_per_cycle::8     11033313      4.74%    100.00% # Number of insts issued each cycle
system.switch_cpus0.iq.issued_per_cycle::overflows            0      0.00%    100.00% # Number of insts issued each cycle
system.switch_cpus0.iq.issued_per_cycle::min_value            0                       # Number of insts issued each cycle
system.switch_cpus0.iq.issued_per_cycle::max_value            8                       # Number of insts issued each cycle
system.switch_cpus0.iq.issued_per_cycle::total    232914333                       # Number of insts issued each cycle
system.switch_cpus0.iq.rate                  2.842890                       # Inst issue rate
system.switch_cpus0.iq.vec_alu_accesses             0                       # Number of vector alu accesses
system.switch_cpus0.iq.vec_inst_queue_reads            0                       # Number of vector instruction queue reads
system.switch_cpus0.iq.vec_inst_queue_wakeup_accesses            0                       # Number of vector instruction queue wakeup accesses
system.switch_cpus0.iq.vec_inst_queue_writes            0                       # Number of vector instruction queue writes
system.switch_cpus0.memDep0.conflictingLoads      7003237                       # Number of conflicting loads.
system.switch_cpus0.memDep0.conflictingStores      4710957                       # Number of conflicting stores.
system.switch_cpus0.memDep0.insertedLoads    123917345                       # Number of loads inserted to the mem dependence unit.
system.switch_cpus0.memDep0.insertedStores     41202437                       # Number of stores inserted to the mem dependence unit.
system.switch_cpus0.misc_regfile_reads      259049667                       # number of misc regfile reads
system.switch_cpus0.misc_regfile_writes             1                       # number of misc regfile writes
system.switch_cpus0.numCycles               233148150                       # number of cpu cycles simulated
system.switch_cpus0.numWorkItemsCompleted            0                       # number of work items this cpu completed
system.switch_cpus0.numWorkItemsStarted             0                       # number of work items this cpu started
system.switch_cpus0.timesIdled                   1050                       # Number of times that the entire CPU went into an idle state and unscheduled itself
system.switch_cpus1.cc_regfile_reads        318661582                       # number of cc regfile reads
system.switch_cpus1.cc_regfile_writes       224812983                       # number of cc regfile writes
system.switch_cpus1.committedInsts          250000000                       # Number of Instructions Simulated
system.switch_cpus1.committedOps            459848042                       # Number of Ops (including micro ops) Simulated
system.switch_cpus1.cpi                      0.932593                       # CPI: Cycles Per Instruction
system.switch_cpus1.cpi_total                0.932593                       # CPI: Total CPI of All Threads
system.switch_cpus1.fp_regfile_reads          1976342                       # number of floating regfile reads
system.switch_cpus1.fp_regfile_writes         1431830                       # number of floating regfile writes
system.switch_cpus1.idleCycles                 235266                       # Total number of cycles that the CPU has spent unscheduled due to idling
system.switch_cpus1.iew.branchMispredicts      5862381                       # Number of branch mispredicts detected at execute
system.switch_cpus1.iew.exec_branches        60473918                       # Number of branches executed
system.switch_cpus1.iew.exec_nop                    0                       # number of nop insts executed
system.switch_cpus1.iew.exec_rate            2.794875                       # Inst execution rate
system.switch_cpus1.iew.exec_refs           133035303                       # number of memory reference insts executed
system.switch_cpus1.iew.exec_stores          33047279                       # Number of stores executed
system.switch_cpus1.iew.exec_swp                    0                       # number of swp insts executed
system.switch_cpus1.iew.iewBlockCycles       40225060                       # Number of cycles IEW is blocking
system.switch_cpus1.iew.iewDispLoadInsts    123922821                       # Number of dispatched load instructions
system.switch_cpus1.iew.iewDispNonSpecInsts          107                       # Number of dispatched non-speculative instructions
system.switch_cpus1.iew.iewDispSquashedInsts       159832                       # Number of squashed instructions skipped by dispatch
system.switch_cpus1.iew.iewDispStoreInsts     41205547                       # Number of dispatched store instructions
system.switch_cpus1.iew.iewDispatchedInsts    793572769                       # Number of instructions dispatched to IQ
system.switch_cpus1.iew.iewExecLoadInsts     99988024                       # Number of load instructions executed
system.switch_cpus1.iew.iewExecSquashedInsts     11232209                       # Number of squashed instructions skipped in execute
system.switch_cpus1.iew.iewExecutedInsts    651619860                       # Number of executed instructions
system.switch_cpus1.iew.iewIQFullEvents         12735                       # Number of times the IQ has become full, causing a stall
system.switch_cpus1.iew.iewIdleCycles               0                       # Number of cycles IEW is idle
system.switch_cpus1.iew.iewLSQFullEvents       168635                       # Number of times the LSQ has become full, causing a stall
system.switch_cpus1.iew.iewSquashCycles       5214253                       # Number of cycles IEW is squashing
system.switch_cpus1.iew.iewUnblockCycles       180439                       # Number of cycles IEW is unblocking
system.switch_cpus1.iew.memOrderViolationEvents        40646                       # Number of memory order violations
system.switch_cpus1.iew.predictedNotTakenIncorrect      3219085                       # Number of branches that were predicted not taken incorrectly
system.switch_cpus1.iew.predictedTakenIncorrect      2643296                       # Number of branches that were predicted taken incorrectly
system.switch_cpus1.iew.wb_consumers        877970973                       # num instructions consuming a value
system.switch_cpus1.iew.wb_count            646689464                       # cumulative count of insts written-back
system.switch_cpus1.iew.wb_fanout            0.572706                       # average fanout of values written-back
system.switch_cpus1.iew.wb_producers        502819400                       # num instructions producing a value
system.switch_cpus1.iew.wb_rate              2.773728                       # insts written-back per cycle
system.switch_cpus1.iew.wb_sent             650391297                       # cumulative count of insts sent to commit
system.switch_cpus1.int_regfile_reads       996394075                       # number of integer regfile reads
system.switch_cpus1.int_regfile_writes      571013929                       # number of integer regfile writes
system.switch_cpus1.ipc                      1.072280                       # IPC: Instructions Per Cycle
system.switch_cpus1.ipc_total                1.072280                       # IPC: Total IPC of All Threads
system.switch_cpus1.iq.FU_type_0::No_OpClass      3357055      0.51%      0.51% # Type of FU issued
system.switch_cpus1.iq.FU_type_0::IntAlu    511625444     77.19%     77.69% # Type of FU issued
system.switch_cpus1.iq.FU_type_0::IntMult      2777940      0.42%     78.11% # Type of FU issued
system.switch_cpus1.iq.FU_type_0::IntDiv      6876791      1.04%     79.15% # Type of FU issued
system.switch_cpus1.iq.FU_type_0::FloatAdd        48666      0.01%     79.16% # Type of FU issued
system.switch_cpus1.iq.FU_type_0::FloatCmp            0      0.00%     79.16% # Type of FU issued
system.switch_cpus1.iq.FU_type_0::FloatCvt          350      0.00%     79.16% # Type of FU issued
system.switch_cpus1.iq.FU_type_0::FloatMult            0      0.00%     79.16% # Type of FU issued
system.switch_cpus1.iq.FU_type_0::FloatMultAcc            0      0.00%     79.16% # Type of FU issued
system.switch_cpus1.iq.FU_type_0::FloatDiv            0      0.00%     79.16% # Type of FU issued
system.switch_cpus1.iq.FU_type_0::FloatMisc            0      0.00%     79.16% # Type of FU issued
system.switch_cpus1.iq.FU_type_0::FloatSqrt            0      0.00%     79.16% # Type of FU issued
system.switch_cpus1.iq.FU_type_0::SimdAdd            0      0.00%     79.16% # Type of FU issued
system.switch_cpus1.iq.FU_type_0::SimdAddAcc            0      0.00%     79.16% # Type of FU issued
system.switch_cpus1.iq.FU_type_0::SimdAlu        45127      0.01%     79.16% # Type of FU issued
system.switch_cpus1.iq.FU_type_0::SimdCmp            0      0.00%     79.16% # Type of FU issued
system.switch_cpus1.iq.FU_type_0::SimdCvt           24      0.00%     79.16% # Type of FU issued
system.switch_cpus1.iq.FU_type_0::SimdMisc       118391      0.02%     79.18% # Type of FU issued
system.switch_cpus1.iq.FU_type_0::SimdMult            0      0.00%     79.18% # Type of FU issued
system.switch_cpus1.iq.FU_type_0::SimdMultAcc            0      0.00%     79.18% # Type of FU issued
system.switch_cpus1.iq.FU_type_0::SimdShift            0      0.00%     79.18% # Type of FU issued
system.switch_cpus1.iq.FU_type_0::SimdShiftAcc            0      0.00%     79.18% # Type of FU issued
system.switch_cpus1.iq.FU_type_0::SimdDiv            0      0.00%     79.18% # Type of FU issued
system.switch_cpus1.iq.FU_type_0::SimdSqrt            0      0.00%     79.18% # Type of FU issued
system.switch_cpus1.iq.FU_type_0::SimdFloatAdd       113742      0.02%     79.20% # Type of FU issued
system.switch_cpus1.iq.FU_type_0::SimdFloatAlu            0      0.00%     79.20% # Type of FU issued
system.switch_cpus1.iq.FU_type_0::SimdFloatCmp            0      0.00%     79.20% # Type of FU issued
system.switch_cpus1.iq.FU_type_0::SimdFloatCvt       248023      0.04%     79.24% # Type of FU issued
system.switch_cpus1.iq.FU_type_0::SimdFloatDiv         3071      0.00%     79.24% # Type of FU issued
system.switch_cpus1.iq.FU_type_0::SimdFloatMisc            0      0.00%     79.24% # Type of FU issued
system.switch_cpus1.iq.FU_type_0::SimdFloatMult            0      0.00%     79.24% # Type of FU issued
system.switch_cpus1.iq.FU_type_0::SimdFloatMultAcc            0      0.00%     79.24% # Type of FU issued
system.switch_cpus1.iq.FU_type_0::SimdFloatSqrt            0      0.00%     79.24% # Type of FU issued
system.switch_cpus1.iq.FU_type_0::SimdReduceAdd            0      0.00%     79.24% # Type of FU issued
system.switch_cpus1.iq.FU_type_0::SimdReduceAlu            0      0.00%     79.24% # Type of FU issued
system.switch_cpus1.iq.FU_type_0::SimdReduceCmp            0      0.00%     79.24% # Type of FU issued
system.switch_cpus1.iq.FU_type_0::SimdFloatReduceAdd            0      0.00%     79.24% # Type of FU issued
system.switch_cpus1.iq.FU_type_0::SimdFloatReduceCmp            0      0.00%     79.24% # Type of FU issued
system.switch_cpus1.iq.FU_type_0::SimdAes            0      0.00%     79.24% # Type of FU issued
system.switch_cpus1.iq.FU_type_0::SimdAesMix            0      0.00%     79.24% # Type of FU issued
system.switch_cpus1.iq.FU_type_0::SimdSha1Hash            0      0.00%     79.24% # Type of FU issued
system.switch_cpus1.iq.FU_type_0::SimdSha1Hash2            0      0.00%     79.24% # Type of FU issued
[...]
system.switch_cpus3.commit.numCommittedDist::1     55455331     29.55%     56.62% # Number of insts commited each cycle
system.switch_cpus3.commit.numCommittedDist::2     15973015      8.51%     65.13% # Number of insts commited each cycle
system.switch_cpus3.commit.numCommittedDist::3     19029930     10.14%     75.27% # Number of insts commited each cycle
system.switch_cpus3.commit.numCommittedDist::4      8541661      4.55%     79.82% # Number of insts commited each cycle
system.switch_cpus3.commit.numCommittedDist::5      4214121      2.25%     82.06% # Number of insts commited each cycle
system.switch_cpus3.commit.numCommittedDist::6      3312379      1.76%     83.83% # Number of insts commited each cycle
system.switch_cpus3.commit.numCommittedDist::7      2558483      1.36%     85.19% # Number of insts commited each cycle
system.switch_cpus3.commit.numCommittedDist::8     27790811     14.81%    100.00% # Number of insts commited each cycle
system.switch_cpus3.commit.numCommittedDist::overflows            0      0.00%    100.00% # Number of insts commited each cycle
system.switch_cpus3.commit.numCommittedDist::min_value            0                       # Number of insts commited each cycle
system.switch_cpus3.commit.numCommittedDist::max_value            8                       # Number of insts commited each cycle
system.switch_cpus3.commit.numCommittedDist::total    187680819                       # Number of insts commited each cycle
system.switch_cpus3.commit.instsCommitted    249994422                       # Number of instructions committed
system.switch_cpus3.commit.opsCommitted     459838543                       # Number of ops (including micro ops) committed
system.switch_cpus3.commit.memRefs           94321354                       # Number of memory references committed
system.switch_cpus3.commit.loads             69205506                       # Number of loads committed
system.switch_cpus3.commit.amos                     0                       # Number of atomic instructions committed
system.switch_cpus3.commit.membars                 80                       # Number of memory barriers committed
system.switch_cpus3.commit.branches          44716320                       # Number of branches committed
system.switch_cpus3.commit.vector                   0                       # Number of committed Vector instructions.
system.switch_cpus3.commit.floating           1967926                       # Number of committed floating point instructions.
system.switch_cpus3.commit.integer          456283230                       # Number of committed integer instructions.
system.switch_cpus3.commit.functionCalls      6687272                       # Number of function calls committed.
system.switch_cpus3.commit.committedInstType_0::No_OpClass      2969191      0.65%      0.65% # Class of committed instruction
system.switch_cpus3.commit.committedInstType_0::IntAlu    352565244     76.67%     77.32% # Class of committed instruction
system.switch_cpus3.commit.committedInstType_0::IntMult      2723485      0.59%     77.91% # Class of committed instruction
system.switch_cpus3.commit.committedInstType_0::IntDiv      6755289      1.47%     79.38% # Class of committed instruction
system.switch_cpus3.commit.committedInstType_0::FloatAdd        32287      0.01%     79.39% # Class of committed instruction
system.switch_cpus3.commit.committedInstType_0::FloatCmp            0      0.00%     79.39% # Class of committed instruction
system.switch_cpus3.commit.committedInstType_0::FloatCvt            0      0.00%     79.39% # Class of committed instruction
system.switch_cpus3.commit.committedInstType_0::FloatMult            0      0.00%     79.39% # Class of committed instruction
system.switch_cpus3.commit.committedInstType_0::FloatMultAcc            0      0.00%     79.39% # Class of committed instruction
system.switch_cpus3.commit.committedInstType_0::FloatDiv            0      0.00%     79.39% # Class of committed instruction
system.switch_cpus3.commit.committedInstType_0::FloatMisc            0      0.00%     79.39% # Class of committed instruction
system.switch_cpus3.commit.committedInstType_0::FloatSqrt            0      0.00%     79.39% # Class of committed instruction
system.switch_cpus3.commit.committedInstType_0::SimdAdd            0      0.00%     79.39% # Class of committed instruction
system.switch_cpus3.commit.committedInstType_0::SimdAddAcc            0      0.00%     79.39% # Class of committed instruction
system.switch_cpus3.commit.committedInstType_0::SimdAlu        34388      0.01%     79.39% # Class of committed instruction
system.switch_cpus3.commit.committedInstType_0::SimdCmp            0      0.00%     79.39% # Class of committed instruction
system.switch_cpus3.commit.committedInstType_0::SimdCvt           24      0.00%     79.39% # Class of committed instruction
system.switch_cpus3.commit.committedInstType_0::SimdMisc       107719      0.02%     79.42% # Class of committed instruction
system.switch_cpus3.commit.committedInstType_0::SimdMult            0      0.00%     79.42% # Class of committed instruction
system.switch_cpus3.commit.committedInstType_0::SimdMultAcc            0      0.00%     79.42% # Class of committed instruction
system.switch_cpus3.commit.committedInstType_0::SimdShift            0      0.00%     79.42% # Class of committed instruction
system.switch_cpus3.commit.committedInstType_0::SimdShiftAcc            0      0.00%     79.42% # Class of committed instruction
system.switch_cpus3.commit.committedInstType_0::SimdDiv            0      0.00%     79.42% # Class of committed instruction
system.switch_cpus3.commit.committedInstType_0::SimdSqrt            0      0.00%     79.42% # Class of committed instruction
system.switch_cpus3.commit.committedInstType_0::SimdFloatAdd       103565      0.02%     79.44% # Class of committed instruction
system.switch_cpus3.commit.committedInstType_0::SimdFloatAlu            0      0.00%     79.44% # Class of committed instruction
system.switch_cpus3.commit.committedInstType_0::SimdFloatCmp            0      0.00%     79.44% # Class of committed instruction
system.switch_cpus3.commit.committedInstType_0::SimdFloatCvt       224682      0.05%     79.49% # Class of committed instruction
system.switch_cpus3.commit.committedInstType_0::SimdFloatDiv         1315      0.00%     79.49% # Class of committed instruction
system.switch_cpus3.commit.committedInstType_0::SimdFloatMisc            0      0.00%     79.49% # Class of committed instruction
system.switch_cpus3.commit.committedInstType_0::SimdFloatMult            0      0.00%     79.49% # Class of committed instruction
system.switch_cpus3.commit.committedInstType_0::SimdFloatMultAcc            0      0.00%     79.49% # Class of committed instruction
system.switch_cpus3.commit.committedInstType_0::SimdFloatSqrt            0      0.00%     79.49% # Class of committed instruction
system.switch_cpus3.commit.committedInstType_0::SimdReduceAdd            0      0.00%     79.49% # Class of committed instruction
system.switch_cpus3.commit.committedInstType_0::SimdReduceAlu            0      0.00%     79.49% # Class of committed instruction
system.switch_cpus3.commit.committedInstType_0::SimdReduceCmp            0      0.00%     79.49% # Class of committed instruction
system.switch_cpus3.commit.committedInstType_0::SimdFloatReduceAdd            0      0.00%     79.49% # Class of committed instruction
system.switch_cpus3.commit.committedInstType_0::SimdFloatReduceCmp            0      0.00%     79.49% # Class of committed instruction
system.switch_cpus3.commit.committedInstType_0::SimdAes            0      0.00%     79.49% # Class of committed instruction
system.switch_cpus3.commit.committedInstType_0::SimdAesMix            0      0.00%     79.49% # Class of committed instruction
system.switch_cpus3.commit.committedInstType_0::SimdSha1Hash            0      0.00%     79.49% # Class of committed instruction
system.switch_cpus3.commit.committedInstType_0::SimdSha1Hash2            0      0.00%     79.49% # Class of committed instruction
system.switch_cpus3.commit.committedInstType_0::SimdSha256Hash            0      0.00%     79.49% # Class of committed instruction
system.switch_cpus3.commit.committedInstType_0::SimdSha256Hash2            0      0.00%     79.49% # Class of committed instruction
system.switch_cpus3.commit.committedInstType_0::SimdShaSigma2            0      0.00%     79.49% # Class of committed instruction
system.switch_cpus3.commit.committedInstType_0::SimdShaSigma3            0      0.00%     79.49% # Class of committed instruction
system.switch_cpus3.commit.committedInstType_0::SimdPredAlu            0      0.00%     79.49% # Class of committed instruction
system.switch_cpus3.commit.committedInstType_0::MemRead     68377163     14.87%     94.36% # Class of committed instruction
system.switch_cpus3.commit.committedInstType_0::MemWrite     24490958      5.33%     99.68% # Class of committed instruction
system.switch_cpus3.commit.committedInstType_0::FloatMemRead       828343      0.18%     99.86% # Class of committed instruction
system.switch_cpus3.commit.committedInstType_0::FloatMemWrite       624890      0.14%    100.00% # Class of committed instruction
system.switch_cpus3.commit.committedInstType_0::IprAccess            0      0.00%    100.00% # Class of committed instruction
system.switch_cpus3.commit.committedInstType_0::InstPrefetch            0      0.00%    100.00% # Class of committed instruction
system.switch_cpus3.commit.committedInstType_0::total    459838543                       # Class of committed instruction
system.switch_cpus3.commit.commitEligibleSamples     27790811                       # number cycles where commit BW limit reached
system.switch_cpus3.decode.idleCycles        22338815                       # Number of cycles decode is idle
system.switch_cpus3.decode.blockedCycles     83493362                       # Number of cycles decode is blocked
system.switch_cpus3.decode.runCycles         95530270                       # Number of cycles decode is running
system.switch_cpus3.decode.unblockCycles     26334857                       # Number of cycles decode is unblocking
system.switch_cpus3.decode.squashCycles       5214138                       # Number of cycles decode is squashing
system.switch_cpus3.decode.branchResolved     40265487                       # Number of times decode resolved a  branch
system.switch_cpus3.decode.branchMispred       342973                       # Number of times decode detected a branch misprediction
system.switch_cpus3.decode.decodedInsts     881274634                       # Number of instructions handled by decode
system.switch_cpus3.decode.squashedInsts      1952489                       # Number of squashed instructions handled by decode
system.switch_cpus3.dtb.rdAccesses           99985787                       # TLB accesses on read requests
system.switch_cpus3.dtb.wrAccesses           33051799                       # TLB accesses on write requests
system.switch_cpus3.dtb.rdMisses               131243                       # TLB misses on read requests
system.switch_cpus3.dtb.wrMisses                 5776                       # TLB misses on write requests
system.switch_cpus3.dtb.walker.power_state.pwrStateResidencyTicks::UNDEFINED 18651283214832                       # Cumulative time (in ticks) in various power states
system.switch_cpus3.fetch.icacheStallCycles      4997876                       # Number of cycles fetch is stalled on an Icache miss
system.switch_cpus3.fetch.insts             535803458                       # Number of instructions fetch has processed
system.switch_cpus3.fetch.branches           98953721                       # Number of branches that fetch encountered
system.switch_cpus3.fetch.predictedBranches     57459568                       # Number of branches that fetch has predicted taken
system.switch_cpus3.fetch.cycles            222370146                       # Number of cycles fetch has run and was not squashing or blocked
system.switch_cpus3.fetch.squashCycles       11081260                       # Number of cycles fetch has spent squashing
system.switch_cpus3.fetch.miscStallCycles          322                       # Number of cycles fetch has spent waiting on interrupts,or bad addresses, or out of MSHRs
system.switch_cpus3.fetch.pendingTrapStallCycles         2483                       # Number of stall cycles due to pending traps
system.switch_cpus3.fetch.cacheLines         81625818                       # Number of cache lines fetched
system.switch_cpus3.fetch.icacheSquashes        11802                       # Number of outstanding Icache misses that were squashed
system.switch_cpus3.fetch.nisnDist::samples    232911457                       # Number of instructions fetched each cycle (Total)
system.switch_cpus3.fetch.nisnDist::mean     4.174722                       # Number of instructions fetched each cycle (Total)
system.switch_cpus3.fetch.nisnDist::stdev     3.380132                       # Number of instructions fetched each cycle (Total)
system.switch_cpus3.fetch.nisnDist::underflows            0      0.00%      0.00% # Number of instructions fetched each cycle (Total)
system.switch_cpus3.fetch.nisnDist::0        68186669     29.28%     29.28% # Number of instructions fetched each cycle (Total)
system.switch_cpus3.fetch.nisnDist::1        12385043      5.32%     34.59% # Number of instructions fetched each cycle (Total)
system.switch_cpus3.fetch.nisnDist::2         9602885      4.12%     38.72% # Number of instructions fetched each cycle (Total)
system.switch_cpus3.fetch.nisnDist::3        14992857      6.44%     45.15% # Number of instructions fetched each cycle (Total)
system.switch_cpus3.fetch.nisnDist::4        10951188      4.70%     49.86% # Number of instructions fetched each cycle (Total)
system.switch_cpus3.fetch.nisnDist::5        16050360      6.89%     56.75% # Number of instructions fetched each cycle (Total)
system.switch_cpus3.fetch.nisnDist::6        11990216      5.15%     61.89% # Number of instructions fetched each cycle (Total)
system.switch_cpus3.fetch.nisnDist::7        10244553      4.40%     66.29% # Number of instructions fetched each cycle (Total)
system.switch_cpus3.fetch.nisnDist::8        78507686     33.71%    100.00% # Number of instructions fetched each cycle (Total)
system.switch_cpus3.fetch.nisnDist::overflows            0      0.00%    100.00% # Number of instructions fetched each cycle (Total)
system.switch_cpus3.fetch.nisnDist::min_value            0                       # Number of instructions fetched each cycle (Total)
system.switch_cpus3.fetch.nisnDist::max_value            8                       # Number of instructions fetched each cycle (Total)
system.switch_cpus3.fetch.nisnDist::total    232911457                       # Number of instructions fetched each cycle (Total)
system.switch_cpus3.fetch.branchRate         0.424424                       # Number of branch fetches per cycle
system.switch_cpus3.fetch.rate               2.298124                       # Number of inst fetches per cycle
system.switch_cpus3.itb.rdAccesses                  0                       # TLB accesses on read requests
system.switch_cpus3.itb.wrAccesses           81626201                       # TLB accesses on write requests
system.switch_cpus3.itb.rdMisses                    0                       # TLB misses on read requests
system.switch_cpus3.itb.wrMisses                  477                       # TLB misses on write requests
system.switch_cpus3.itb.walker.power_state.pwrStateResidencyTicks::UNDEFINED 18651283214832                       # Cumulative time (in ticks) in various power states
system.switch_cpus3.lsq0.forwLoads           13031388                       # Number of loads that had data forwarded from stores
system.switch_cpus3.lsq0.squashedLoads       54714196                       # Number of loads squashed
system.switch_cpus3.lsq0.ignoredResponses        64695                       # Number of memory responses ignored because the instruction is squashed
system.switch_cpus3.lsq0.memOrderViolation        40557                       # Number of memory ordering violations
system.switch_cpus3.lsq0.squashedStores      16087960                       # Number of stores squashed
system.switch_cpus3.lsq0.rescheduledLoads        40094                       # Number of loads that were rescheduled
system.switch_cpus3.lsq0.blockedByCache             7                       # Number of times an access to memory failed due to the cache being blocked
system.switch_cpus3.power_state.pwrStateResidencyTicks::OFF  77638344273                       # Cumulative time (in ticks) in various power states
system.switch_cpus3.rename.squashCycles       5214138                       # Number of cycles rename is squashing
system.switch_cpus3.rename.idleCycles        33594224                       # Number of cycles rename is idle
system.switch_cpus3.rename.blockCycles       43464481                       # Number of cycles rename is blocking
system.switch_cpus3.rename.serializeStallCycles            5                       # count of cycles rename stalledfor serializing inst
system.switch_cpus3.rename.runCycles        109681806                       # Number of cycles rename is running
system.switch_cpus3.rename.unblockCycles     40956788                       # Number of cycles rename is unblocking
system.switch_cpus3.rename.renamedInsts     849455732                       # Number of instructions processed by rename
system.switch_cpus3.rename.ROBFullEvents       381681                       # Number of times rename has blocked due to ROB full
system.switch_cpus3.rename.IQFullEvents      30888000                       # Number of times rename has blocked due to IQ full
system.switch_cpus3.rename.LQFullEvents       2311557                       # Number of times rename has blocked due to LQ full
system.switch_cpus3.rename.SQFullEvents       3522561                       # Number of times rename has blocked due to SQ full
system.switch_cpus3.rename.fullRegistersEvents            9                       # Number of times there has been no free registers
system.switch_cpus3.rename.renamedOperands   1066857938                       # Number of destination operands rename has renamed
system.switch_cpus3.rename.lookups         2186210092                       # Number of register rename lookups that rename has made
system.switch_cpus3.rename.intLookups      1365160736                       # Number of integer rename lookups
system.switch_cpus3.rename.fpLookups          2570882                       # Number of floating rename lookups
system.switch_cpus3.rename.committedMaps    585169524                       # Number of HB maps that are committed
system.switch_cpus3.rename.undoneMaps       481688307                       # Number of HB maps that are undone due to squashing
system.switch_cpus3.rename.serializing              1                       # count of serializing insts renamed
system.switch_cpus3.rename.tempSerializing            1                       # count of temporary serializing insts renamed
system.switch_cpus3.rename.skidInsts         95758294                       # count of insts added to the skid buffer
system.switch_cpus3.rob.reads               951329096                       # The number of ROB reads
system.switch_cpus3.rob.writes             1629331581                       # The number of ROB writes
system.switch_cpus3.thread0.numInsts        249994422                       # Number of Instructions committed
system.switch_cpus3.thread0.numOps          459838543                       # Number of Ops committed
system.switch_cpus3.thread0.numMemRefs              0                       # Number of Memory References
system.voltage_domain.voltage                       1                       # Voltage in Volts

---------- End Simulation Statistics   ----------
