
---------- Begin Simulation Statistics ----------
final_tick                               13815783221499                       # Number of ticks from beginning of simulation (restored from checkpoints and never reset)
host_inst_rate                                 129559                       # Simulator instruction rate (inst/s)
host_mem_usage                               17322212                       # Number of bytes of host memory used
host_op_rate                                   178021                       # Simulator op (including micro ops) rate (op/s)
host_seconds                                  4795.66                       # Real time elapsed on the host
host_tick_rate                               20170468                       # Simulator tick rate (ticks/s)
sim_freq                                 1000000000000                       # Frequency of simulated ticks
sim_insts                                   621319402                       # Number of instructions simulated
sim_ops                                     853727876                       # Number of ops (including micro ops) simulated
sim_seconds                                  0.096731                       # Number of seconds simulated
sim_ticks                                 96730625880                       # Number of ticks simulated
system.cpu0.committedInsts                         17                       # Number of instructions committed
system.cpu0.committedOps                           20                       # Number of ops (including micro ops) committed
system.cpu0.idle_fraction                           0                       # Percentage of idle cycles
system.cpu0.l2bus.snoop_filter.hit_multi_requests            3                       # Number of requests hitting in the snoop filter with multiple (>1) holders of the requested data.
system.cpu0.l2bus.snoop_filter.hit_multi_snoops            0                       # Number of snoops hitting in the snoop filter with multiple (>1) holders of the requested data.
system.cpu0.l2bus.snoop_filter.hit_single_requests     17765604                       # Number of requests hitting in the snoop filter with a single holder of the requested data.
system.cpu0.l2bus.snoop_filter.hit_single_snoops        21157                       # Number of snoops hitting in the snoop filter with a single holder of the requested data.
system.cpu0.l2bus.snoop_filter.tot_requests     35532228                       # Total number of requests made to the snoop filter.
system.cpu0.l2bus.snoop_filter.tot_snoops        21157                       # Total number of snoops made to the snoop filter.
system.cpu0.mmucache.mmubus.snoop_filter.hit_multi_requests            0                       # Number of requests hitting in the snoop filter with multiple (>1) holders of the requested data.
system.cpu0.mmucache.mmubus.snoop_filter.hit_multi_snoops            0                       # Number of snoops hitting in the snoop filter with multiple (>1) holders of the requested data.
system.cpu0.mmucache.mmubus.snoop_filter.hit_single_requests            0                       # Number of requests hitting in the snoop filter with a single holder of the requested data.
system.cpu0.mmucache.mmubus.snoop_filter.hit_single_snoops            0                       # Number of snoops hitting in the snoop filter with a single holder of the requested data.
system.cpu0.mmucache.mmubus.snoop_filter.tot_requests            0                       # Total number of requests made to the snoop filter.
system.cpu0.mmucache.mmubus.snoop_filter.tot_snoops            0                       # Total number of snoops made to the snoop filter.
system.cpu0.not_idle_fraction                       1                       # Percentage of non-idle cycles
system.cpu0.numCycles                              30                       # number of cpu cycles simulated
system.cpu0.numWorkItemsCompleted                   0                       # number of work items this cpu completed
system.cpu0.numWorkItemsStarted                     0                       # number of work items this cpu started
system.cpu0.num_busy_cycles                        30                       # Number of busy cycles
system.cpu0.num_conditional_control_insts            0                       # number of instructions that are conditional controls
system.cpu0.num_fp_alu_accesses                    18                       # Number of float alu accesses
system.cpu0.num_fp_insts                           18                       # number of float instructions
system.cpu0.num_fp_register_reads                  28                       # number of times the floating registers were read
system.cpu0.num_fp_register_writes                 16                       # number of times the floating registers were written
system.cpu0.num_func_calls                          0                       # number of times a function call or return occured
system.cpu0.num_idle_cycles                         0                       # Number of idle cycles
system.cpu0.num_int_alu_accesses                   11                       # Number of integer alu accesses
system.cpu0.num_int_insts                          11                       # number of integer instructions
system.cpu0.num_int_register_reads                 33                       # number of times the integer registers were read
system.cpu0.num_int_register_writes                 2                       # number of times the integer registers were written
system.cpu0.num_load_insts                          9                       # Number of load instructions
system.cpu0.num_mem_refs                           11                       # number of memory refs
system.cpu0.num_store_insts                         2                       # Number of store instructions
system.cpu0.num_vec_alu_accesses                    0                       # Number of vector alu accesses
system.cpu0.num_vec_insts                           0                       # number of vector instructions
system.cpu0.num_vec_register_reads                  0                       # number of times the vector registers were read
system.cpu0.num_vec_register_writes                 0                       # number of times the vector registers were written
system.cpu0.op_class::No_OpClass                    0      0.00%      0.00% # Class of executed instruction
system.cpu0.op_class::IntAlu                        1      5.00%      5.00% # Class of executed instruction
system.cpu0.op_class::IntMult                       0      0.00%      5.00% # Class of executed instruction
system.cpu0.op_class::IntDiv                        0      0.00%      5.00% # Class of executed instruction
system.cpu0.op_class::FloatAdd                      0      0.00%      5.00% # Class of executed instruction
system.cpu0.op_class::FloatCmp                      0      0.00%      5.00% # Class of executed instruction
system.cpu0.op_class::FloatCvt                      0      0.00%      5.00% # Class of executed instruction
system.cpu0.op_class::FloatMult                     0      0.00%      5.00% # Class of executed instruction
system.cpu0.op_class::FloatMultAcc                  0      0.00%      5.00% # Class of executed instruction
system.cpu0.op_class::FloatDiv                      0      0.00%      5.00% # Class of executed instruction
system.cpu0.op_class::FloatMisc                     0      0.00%      5.00% # Class of executed instruction
system.cpu0.op_class::FloatSqrt                     0      0.00%      5.00% # Class of executed instruction
system.cpu0.op_class::SimdAdd                       0      0.00%      5.00% # Class of executed instruction
system.cpu0.op_class::SimdAddAcc                    0      0.00%      5.00% # Class of executed instruction
system.cpu0.op_class::SimdAlu                       0      0.00%      5.00% # Class of executed instruction
system.cpu0.op_class::SimdCmp                       0      0.00%      5.00% # Class of executed instruction
system.cpu0.op_class::SimdCvt                       0      0.00%      5.00% # Class of executed instruction
system.cpu0.op_class::SimdMisc                      0      0.00%      5.00% # Class of executed instruction
system.cpu0.op_class::SimdMult                      0      0.00%      5.00% # Class of executed instruction
system.cpu0.op_class::SimdMultAcc                   0      0.00%      5.00% # Class of executed instruction
system.cpu0.op_class::SimdShift                     0      0.00%      5.00% # Class of executed instruction
system.cpu0.op_class::SimdShiftAcc                  0      0.00%      5.00% # Class of executed instruction
system.cpu0.op_class::SimdDiv                       0      0.00%      5.00% # Class of executed instruction
system.cpu0.op_class::SimdSqrt                      0      0.00%      5.00% # Class of executed instruction
system.cpu0.op_class::SimdFloatAdd                  4     20.00%     25.00% # Class of executed instruction
system.cpu0.op_class::SimdFloatAlu                  0      0.00%     25.00% # Class of executed instruction
system.cpu0.op_class::SimdFloatCmp                  0      0.00%     25.00% # Class of executed instruction
system.cpu0.op_class::SimdFloatCvt                  0      0.00%     25.00% # Class of executed instruction
system.cpu0.op_class::SimdFloatDiv                  0      0.00%     25.00% # Class of executed instruction
system.cpu0.op_class::SimdFloatMisc                 0      0.00%     25.00% # Class of executed instruction
system.cpu0.op_class::SimdFloatMult                 4     20.00%     45.00% # Class of executed instruction
system.cpu0.op_class::SimdFloatMultAcc              0      0.00%     45.00% # Class of executed instruction
system.cpu0.op_class::SimdFloatSqrt                 0      0.00%     45.00% # Class of executed instruction
system.cpu0.op_class::SimdReduceAdd                 0      0.00%     45.00% # Class of executed instruction
system.cpu0.op_class::SimdReduceAlu                 0      0.00%     45.00% # Class of executed instruction
system.cpu0.op_class::SimdReduceCmp                 0      0.00%     45.00% # Class of executed instruction
system.cpu0.op_class::SimdFloatReduceAdd            0      0.00%     45.00% # Class of executed instruction
system.cpu0.op_class::SimdFloatReduceCmp            0      0.00%     45.00% # Class of executed instruction
system.cpu0.op_class::SimdAes                       0      0.00%     45.00% # Class of executed instruction
system.cpu0.op_class::SimdAesMix                    0      0.00%     45.00% # Class of executed instruction
system.cpu0.op_class::SimdSha1Hash                  0      0.00%     45.00% # Class of executed instruction
system.cpu0.op_class::SimdSha1Hash2                 0      0.00%     45.00% # Class of executed instruction
system.cpu0.op_class::SimdSha256Hash                0      0.00%     45.00% # Class of executed instruction
system.cpu0.op_class::SimdSha256Hash2               0      0.00%     45.00% # Class of executed instruction
system.cpu0.op_class::SimdShaSigma2                 0      0.00%     45.00% # Class of executed instruction
system.cpu0.op_class::SimdShaSigma3                 0      0.00%     45.00% # Class of executed instruction
system.cpu0.op_class::SimdPredAlu                   0      0.00%     45.00% # Class of executed instruction
system.cpu0.op_class::MemRead                       2     10.00%     55.00% # Class of executed instruction
system.cpu0.op_class::MemWrite                      0      0.00%     55.00% # Class of executed instruction
system.cpu0.op_class::FloatMemRead                  7     35.00%     90.00% # Class of executed instruction
system.cpu0.op_class::FloatMemWrite                 2     10.00%    100.00% # Class of executed instruction
system.cpu0.op_class::IprAccess                     0      0.00%    100.00% # Class of executed instruction
system.cpu0.op_class::InstPrefetch                  0      0.00%    100.00% # Class of executed instruction
system.cpu0.op_class::total                        20                       # Class of executed instruction
system.cpu0.workload.numSyscalls                    0                       # Number of system calls
system.cpu1.committedInsts                         19                       # Number of instructions committed
system.cpu1.committedOps                           20                       # Number of ops (including micro ops) committed
system.cpu1.idle_fraction                           0                       # Percentage of idle cycles
system.cpu1.l2bus.snoop_filter.hit_multi_requests            0                       # Number of requests hitting in the snoop filter with multiple (>1) holders of the requested data.
system.cpu1.l2bus.snoop_filter.hit_multi_snoops            0                       # Number of snoops hitting in the snoop filter with multiple (>1) holders of the requested data.
system.cpu1.l2bus.snoop_filter.hit_single_requests      5338827                       # Number of requests hitting in the snoop filter with a single holder of the requested data.
system.cpu1.l2bus.snoop_filter.hit_single_snoops          383                       # Number of snoops hitting in the snoop filter with a single holder of the requested data.
system.cpu1.l2bus.snoop_filter.tot_requests     10678228                       # Total number of requests made to the snoop filter.
system.cpu1.l2bus.snoop_filter.tot_snoops          383                       # Total number of snoops made to the snoop filter.
system.cpu1.mmucache.mmubus.snoop_filter.hit_multi_requests            0                       # Number of requests hitting in the snoop filter with multiple (>1) holders of the requested data.
system.cpu1.mmucache.mmubus.snoop_filter.hit_multi_snoops            0                       # Number of snoops hitting in the snoop filter with multiple (>1) holders of the requested data.
system.cpu1.mmucache.mmubus.snoop_filter.hit_single_requests            0                       # Number of requests hitting in the snoop filter with a single holder of the requested data.
system.cpu1.mmucache.mmubus.snoop_filter.hit_single_snoops            0                       # Number of snoops hitting in the snoop filter with a single holder of the requested data.
system.cpu1.mmucache.mmubus.snoop_filter.tot_requests            0                       # Total number of requests made to the snoop filter.
system.cpu1.mmucache.mmubus.snoop_filter.tot_snoops            0                       # Total number of snoops made to the snoop filter.
system.cpu1.not_idle_fraction                       1                       # Percentage of non-idle cycles
system.cpu1.numCycles                              30                       # number of cpu cycles simulated
system.cpu1.numWorkItemsCompleted                   0                       # number of work items this cpu completed
system.cpu1.numWorkItemsStarted                     0                       # number of work items this cpu started
system.cpu1.num_busy_cycles                        30                       # Number of busy cycles
system.cpu1.num_conditional_control_insts            0                       # number of instructions that are conditional controls
system.cpu1.num_fp_alu_accesses                    20                       # Number of float alu accesses
system.cpu1.num_fp_insts                           20                       # number of float instructions
system.cpu1.num_fp_register_reads                  36                       # number of times the floating registers were read
system.cpu1.num_fp_register_writes                 19                       # number of times the floating registers were written
system.cpu1.num_func_calls                          0                       # number of times a function call or return occured
system.cpu1.num_idle_cycles                         0                       # Number of idle cycles
system.cpu1.num_int_alu_accesses                    8                       # Number of integer alu accesses
system.cpu1.num_int_insts                           8                       # number of integer instructions
system.cpu1.num_int_register_reads                 24                       # number of times the integer registers were read
system.cpu1.num_int_register_writes                 0                       # number of times the integer registers were written
system.cpu1.num_load_insts                          7                       # Number of load instructions
system.cpu1.num_mem_refs                            8                       # number of memory refs
system.cpu1.num_store_insts                         1                       # Number of store instructions
system.cpu1.num_vec_alu_accesses                    0                       # Number of vector alu accesses
system.cpu1.num_vec_insts                           0                       # number of vector instructions
system.cpu1.num_vec_register_reads                  0                       # number of times the vector registers were read
system.cpu1.num_vec_register_writes                 0                       # number of times the vector registers were written
system.cpu1.op_class::No_OpClass                    0      0.00%      0.00% # Class of executed instruction
system.cpu1.op_class::IntAlu                        1      5.00%      5.00% # Class of executed instruction
system.cpu1.op_class::IntMult                       0      0.00%      5.00% # Class of executed instruction
system.cpu1.op_class::IntDiv                        0      0.00%      5.00% # Class of executed instruction
system.cpu1.op_class::FloatAdd                      0      0.00%      5.00% # Class of executed instruction
system.cpu1.op_class::FloatCmp                      0      0.00%      5.00% # Class of executed instruction
system.cpu1.op_class::FloatCvt                      0      0.00%      5.00% # Class of executed instruction
system.cpu1.op_class::FloatMult                     0      0.00%      5.00% # Class of executed instruction
system.cpu1.op_class::FloatMultAcc                  0      0.00%      5.00% # Class of executed instruction
system.cpu1.op_class::FloatDiv                      0      0.00%      5.00% # Class of executed instruction
system.cpu1.op_class::FloatMisc                     0      0.00%      5.00% # Class of executed instruction
system.cpu1.op_class::FloatSqrt                     0      0.00%      5.00% # Class of executed instruction
system.cpu1.op_class::SimdAdd                       0      0.00%      5.00% # Class of executed instruction
system.cpu1.op_class::SimdAddAcc                    0      0.00%      5.00% # Class of executed instruction
system.cpu1.op_class::SimdAlu                       0      0.00%      5.00% # Class of executed instruction
system.cpu1.op_class::SimdCmp                       0      0.00%      5.00% # Class of executed instruction
system.cpu1.op_class::SimdCvt                       0      0.00%      5.00% # Class of executed instruction
system.cpu1.op_class::SimdMisc                      0      0.00%      5.00% # Class of executed instruction
system.cpu1.op_class::SimdMult                      0      0.00%      5.00% # Class of executed instruction
system.cpu1.op_class::SimdMultAcc                   0      0.00%      5.00% # Class of executed instruction
system.cpu1.op_class::SimdShift                     0      0.00%      5.00% # Class of executed instruction
system.cpu1.op_class::SimdShiftAcc                  0      0.00%      5.00% # Class of executed instruction
system.cpu1.op_class::SimdDiv                       0      0.00%      5.00% # Class of executed instruction
system.cpu1.op_class::SimdSqrt                      0      0.00%      5.00% # Class of executed instruction
system.cpu1.op_class::SimdFloatAdd                  5     25.00%     30.00% # Class of executed instruction
system.cpu1.op_class::SimdFloatAlu                  0      0.00%     30.00% # Class of executed instruction
system.cpu1.op_class::SimdFloatCmp                  0      0.00%     30.00% # Class of executed instruction
system.cpu1.op_class::SimdFloatCvt                  0      0.00%     30.00% # Class of executed instruction
system.cpu1.op_class::SimdFloatDiv                  0      0.00%     30.00% # Class of executed instruction
system.cpu1.op_class::SimdFloatMisc                 0      0.00%     30.00% # Class of executed instruction
system.cpu1.op_class::SimdFloatMult                 6     30.00%     60.00% # Class of executed instruction
system.cpu1.op_class::SimdFloatMultAcc              0      0.00%     60.00% # Class of executed instruction
system.cpu1.op_class::SimdFloatSqrt                 0      0.00%     60.00% # Class of executed instruction
system.cpu1.op_class::SimdReduceAdd                 0      0.00%     60.00% # Class of executed instruction
system.cpu1.op_class::SimdReduceAlu                 0      0.00%     60.00% # Class of executed instruction
system.cpu1.op_class::SimdReduceCmp                 0      0.00%     60.00% # Class of executed instruction
system.cpu1.op_class::SimdFloatReduceAdd            0      0.00%     60.00% # Class of executed instruction
system.cpu1.op_class::SimdFloatReduceCmp            0      0.00%     60.00% # Class of executed instruction
system.cpu1.op_class::SimdAes                       0      0.00%     60.00% # Class of executed instruction
system.cpu1.op_class::SimdAesMix                    0      0.00%     60.00% # Class of executed instruction
system.cpu1.op_class::SimdSha1Hash                  0      0.00%     60.00% # Class of executed instruction
system.cpu1.op_class::SimdSha1Hash2                 0      0.00%     60.00% # Class of executed instruction
system.cpu1.op_class::SimdSha256Hash                0      0.00%     60.00% # Class of executed instruction
system.cpu1.op_class::SimdSha256Hash2               0      0.00%     60.00% # Class of executed instruction
system.cpu1.op_class::SimdShaSigma2                 0      0.00%     60.00% # Class of executed instruction
system.cpu1.op_class::SimdShaSigma3                 0      0.00%     60.00% # Class of executed instruction
system.cpu1.op_class::SimdPredAlu                   0      0.00%     60.00% # Class of executed instruction
system.cpu1.op_class::MemRead                       0      0.00%     60.00% # Class of executed instruction
system.cpu1.op_class::MemWrite                      0      0.00%     60.00% # Class of executed instruction
system.cpu1.op_class::FloatMemRead                  7     35.00%     95.00% # Class of executed instruction
system.cpu1.op_class::FloatMemWrite                 1      5.00%    100.00% # Class of executed instruction
system.cpu1.op_class::IprAccess                     0      0.00%    100.00% # Class of executed instruction
system.cpu1.op_class::InstPrefetch                  0      0.00%    100.00% # Class of executed instruction
system.cpu1.op_class::total                        20                       # Class of executed instruction
system.cpu1.workload.numSyscalls                    0                       # Number of system calls
system.cpu2.Branches                                1                       # Number of branches fetched
system.cpu2.committedInsts                         17                       # Number of instructions committed
system.cpu2.committedOps                           25                       # Number of ops (including micro ops) committed
system.cpu2.idle_fraction                           0                       # Percentage of idle cycles
system.cpu2.l2bus.snoop_filter.hit_multi_requests          279                       # Number of requests hitting in the snoop filter with multiple (>1) holders of the requested data.
system.cpu2.l2bus.snoop_filter.hit_multi_snoops          118                       # Number of snoops hitting in the snoop filter with multiple (>1) holders of the requested data.
system.cpu2.l2bus.snoop_filter.hit_single_requests      3517769                       # Number of requests hitting in the snoop filter with a single holder of the requested data.
system.cpu2.l2bus.snoop_filter.hit_single_snoops          351                       # Number of snoops hitting in the snoop filter with a single holder of the requested data.
system.cpu2.l2bus.snoop_filter.tot_requests      7010586                       # Total number of requests made to the snoop filter.
system.cpu2.l2bus.snoop_filter.tot_snoops          469                       # Total number of snoops made to the snoop filter.
system.cpu2.mmucache.mmubus.snoop_filter.hit_multi_requests            0                       # Number of requests hitting in the snoop filter with multiple (>1) holders of the requested data.
system.cpu2.mmucache.mmubus.snoop_filter.hit_multi_snoops            0                       # Number of snoops hitting in the snoop filter with multiple (>1) holders of the requested data.
system.cpu2.mmucache.mmubus.snoop_filter.hit_single_requests            0                       # Number of requests hitting in the snoop filter with a single holder of the requested data.
system.cpu2.mmucache.mmubus.snoop_filter.hit_single_snoops            0                       # Number of snoops hitting in the snoop filter with a single holder of the requested data.
system.cpu2.mmucache.mmubus.snoop_filter.tot_requests            0                       # Total number of requests made to the snoop filter.
system.cpu2.mmucache.mmubus.snoop_filter.tot_snoops            0                       # Total number of snoops made to the snoop filter.
system.cpu2.not_idle_fraction                       1                       # Percentage of non-idle cycles
system.cpu2.numCycles                              31                       # number of cpu cycles simulated
system.cpu2.numWorkItemsCompleted                   0                       # number of work items this cpu completed
system.cpu2.numWorkItemsStarted                     0                       # number of work items this cpu started
system.cpu2.num_busy_cycles                        31                       # Number of busy cycles
system.cpu2.num_cc_register_reads                  20                       # number of times the CC registers were read
system.cpu2.num_cc_register_writes                 12                       # number of times the CC registers were written
system.cpu2.num_conditional_control_insts            1                       # number of instructions that are conditional controls
system.cpu2.num_fp_alu_accesses                     0                       # Number of float alu accesses
system.cpu2.num_fp_insts                            0                       # number of float instructions
system.cpu2.num_fp_register_reads                   0                       # number of times the floating registers were read
system.cpu2.num_fp_register_writes                  0                       # number of times the floating registers were written
system.cpu2.num_func_calls                          0                       # number of times a function call or return occured
system.cpu2.num_idle_cycles                         0                       # Number of idle cycles
system.cpu2.num_int_alu_accesses                   25                       # Number of integer alu accesses
system.cpu2.num_int_insts                          25                       # number of integer instructions
system.cpu2.num_int_register_reads                 59                       # number of times the integer registers were read
system.cpu2.num_int_register_writes                17                       # number of times the integer registers were written
system.cpu2.num_load_insts                          2                       # Number of load instructions
system.cpu2.num_mem_refs                            9                       # number of memory refs
system.cpu2.num_store_insts                         7                       # Number of store instructions
system.cpu2.num_vec_alu_accesses                    0                       # Number of vector alu accesses
system.cpu2.num_vec_insts                           0                       # number of vector instructions
system.cpu2.num_vec_register_reads                  0                       # number of times the vector registers were read
system.cpu2.num_vec_register_writes                 0                       # number of times the vector registers were written
system.cpu2.op_class::No_OpClass                    0      0.00%      0.00% # Class of executed instruction
system.cpu2.op_class::IntAlu                       16     64.00%     64.00% # Class of executed instruction
system.cpu2.op_class::IntMult                       0      0.00%     64.00% # Class of executed instruction
system.cpu2.op_class::IntDiv                        0      0.00%     64.00% # Class of executed instruction
system.cpu2.op_class::FloatAdd                      0      0.00%     64.00% # Class of executed instruction
system.cpu2.op_class::FloatCmp                      0      0.00%     64.00% # Class of executed instruction
system.cpu2.op_class::FloatCvt                      0      0.00%     64.00% # Class of executed instruction
system.cpu2.op_class::FloatMult                     0      0.00%     64.00% # Class of executed instruction
system.cpu2.op_class::FloatMultAcc                  0      0.00%     64.00% # Class of executed instruction
system.cpu2.op_class::FloatDiv                      0      0.00%     64.00% # Class of executed instruction
system.cpu2.op_class::FloatMisc                     0      0.00%     64.00% # Class of executed instruction
system.cpu2.op_class::FloatSqrt                     0      0.00%     64.00% # Class of executed instruction
system.cpu2.op_class::SimdAdd                       0      0.00%     64.00% # Class of executed instruction
system.cpu2.op_class::SimdAddAcc                    0      0.00%     64.00% # Class of executed instruction
system.cpu2.op_class::SimdAlu                       0      0.00%     64.00% # Class of executed instruction
system.cpu2.op_class::SimdCmp                       0      0.00%     64.00% # Class of executed instruction
system.cpu2.op_class::SimdCvt                       0      0.00%     64.00% # Class of executed instruction
system.cpu2.op_class::SimdMisc                      0      0.00%     64.00% # Class of executed instruction
system.cpu2.op_class::SimdMult                      0      0.00%     64.00% # Class of executed instruction
system.cpu2.op_class::SimdMultAcc                   0      0.00%     64.00% # Class of executed instruction
system.cpu2.op_class::SimdShift                     0      0.00%     64.00% # Class of executed instruction
system.cpu2.op_class::SimdShiftAcc                  0      0.00%     64.00% # Class of executed instruction
system.cpu2.op_class::SimdDiv                       0      0.00%     64.00% # Class of executed instruction
system.cpu2.op_class::SimdSqrt                      0      0.00%     64.00% # Class of executed instruction
system.cpu2.op_class::SimdFloatAdd                  0      0.00%     64.00% # Class of executed instruction
system.cpu2.op_class::SimdFloatAlu                  0      0.00%     64.00% # Class of executed instruction
system.cpu2.op_class::SimdFloatCmp                  0      0.00%     64.00% # Class of executed instruction
system.cpu2.op_class::SimdFloatCvt                  0      0.00%     64.00% # Class of executed instruction
system.cpu2.op_class::SimdFloatDiv                  0      0.00%     64.00% # Class of executed instruction
system.cpu2.op_class::SimdFloatMisc                 0      0.00%     64.00% # Class of executed instruction
system.cpu2.op_class::SimdFloatMult                 0      0.00%     64.00% # Class of executed instruction
system.cpu2.op_class::SimdFloatMultAcc              0      0.00%     64.00% # Class of executed instruction
system.cpu2.op_class::SimdFloatSqrt                 0      0.00%     64.00% # Class of executed instruction
system.cpu2.op_class::SimdReduceAdd                 0      0.00%     64.00% # Class of executed instruction
system.cpu2.op_class::SimdReduceAlu                 0      0.00%     64.00% # Class of executed instruction
system.cpu2.op_class::SimdReduceCmp                 0      0.00%     64.00% # Class of executed instruction
system.cpu2.op_class::SimdFloatReduceAdd            0      0.00%     64.00% # Class of executed instruction
system.cpu2.op_class::SimdFloatReduceCmp            0      0.00%     64.00% # Class of executed instruction
system.cpu2.op_class::SimdAes                       0      0.00%     64.00% # Class of executed instruction
system.cpu2.op_class::SimdAesMix                    0      0.00%     64.00% # Class of executed instruction
system.cpu2.op_class::SimdSha1Hash                  0      0.00%     64.00% # Class of executed instruction
system.cpu2.op_class::SimdSha1Hash2                 0      0.00%     64.00% # Class of executed instruction
system.cpu2.op_class::SimdSha256Hash                0      0.00%     64.00% # Class of executed instruction
system.cpu2.op_class::SimdSha256Hash2               0      0.00%     64.00% # Class of executed instruction
system.cpu2.op_class::SimdShaSigma2                 0      0.00%     64.00% # Class of executed instruction
system.cpu2.op_class::SimdShaSigma3                 0      0.00%     64.00% # Class of executed instruction
system.cpu2.op_class::SimdPredAlu                   0      0.00%     64.00% # Class of executed instruction
system.cpu2.op_class::MemRead                       2      8.00%     72.00% # Class of executed instruction
system.cpu2.op_class::MemWrite                      7     28.00%    100.00% # Class of executed instruction
system.cpu2.op_class::FloatMemRead                  0      0.00%    100.00% # Class of executed instruction
system.cpu2.op_class::FloatMemWrite                 0      0.00%    100.00% # Class of executed instruction
system.cpu2.op_class::IprAccess                     0      0.00%    100.00% # Class of executed instruction
system.cpu2.op_class::InstPrefetch                  0      0.00%    100.00% # Class of executed instruction
system.cpu2.op_class::total                        25                       # Class of executed instruction
system.cpu2.workload.numSyscalls                    0                       # Number of system calls
system.cpu3.Branches                                2                       # Number of branches fetched
system.cpu3.committedInsts                         16                       # Number of instructions committed
system.cpu3.committedOps                           24                       # Number of ops (including micro ops) committed
system.cpu3.idle_fraction                           0                       # Percentage of idle cycles
system.cpu3.l2bus.snoop_filter.hit_multi_requests          148                       # Number of requests hitting in the snoop filter with multiple (>1) holders of the requested data.
system.cpu3.l2bus.snoop_filter.hit_multi_snoops            0                       # Number of snoops hitting in the snoop filter with multiple (>1) holders of the requested data.
system.cpu3.l2bus.snoop_filter.hit_single_requests       226951                       # Number of requests hitting in the snoop filter with a single holder of the requested data.
system.cpu3.l2bus.snoop_filter.hit_single_snoops          377                       # Number of snoops hitting in the snoop filter with a single holder of the requested data.
system.cpu3.l2bus.snoop_filter.tot_requests       454663                       # Total number of requests made to the snoop filter.
system.cpu3.l2bus.snoop_filter.tot_snoops          377                       # Total number of snoops made to the snoop filter.
system.cpu3.mmucache.mmubus.snoop_filter.hit_multi_requests            0                       # Number of requests hitting in the snoop filter with multiple (>1) holders of the requested data.
system.cpu3.mmucache.mmubus.snoop_filter.hit_multi_snoops            0                       # Number of snoops hitting in the snoop filter with multiple (>1) holders of the requested data.
system.cpu3.mmucache.mmubus.snoop_filter.hit_single_requests            0                       # Number of requests hitting in the snoop filter with a single holder of the requested data.
system.cpu3.mmucache.mmubus.snoop_filter.hit_single_snoops            0                       # Number of snoops hitting in the snoop filter with a single holder of the requested data.
system.cpu3.mmucache.mmubus.snoop_filter.tot_requests            0                       # Total number of requests made to the snoop filter.
system.cpu3.mmucache.mmubus.snoop_filter.tot_snoops            0                       # Total number of snoops made to the snoop filter.
system.cpu3.not_idle_fraction                       1                       # Percentage of non-idle cycles
system.cpu3.numCycles                              30                       # number of cpu cycles simulated
system.cpu3.numWorkItemsCompleted                   0                       # number of work items this cpu completed
system.cpu3.numWorkItemsStarted                     0                       # number of work items this cpu started
system.cpu3.num_busy_cycles                        30                       # Number of busy cycles
system.cpu3.num_cc_register_reads                  11                       # number of times the CC registers were read
system.cpu3.num_cc_register_writes                  7                       # number of times the CC registers were written
system.cpu3.num_conditional_control_insts            2                       # number of instructions that are conditional controls
system.cpu3.num_fp_alu_accesses                     0                       # Number of float alu accesses
system.cpu3.num_fp_insts                            0                       # number of float instructions
system.cpu3.num_fp_register_reads                   0                       # number of times the floating registers were read
system.cpu3.num_fp_register_writes                  0                       # number of times the floating registers were written
system.cpu3.num_func_calls                          0                       # number of times a function call or return occured
system.cpu3.num_idle_cycles                         0                       # Number of idle cycles
system.cpu3.num_int_alu_accesses                   24                       # Number of integer alu accesses
system.cpu3.num_int_insts                          24                       # number of integer instructions
system.cpu3.num_int_register_reads                 50                       # number of times the integer registers were read
system.cpu3.num_int_register_writes                22                       # number of times the integer registers were written
system.cpu3.num_load_insts                          2                       # Number of load instructions
system.cpu3.num_mem_refs                            3                       # number of memory refs
system.cpu3.num_store_insts                         1                       # Number of store instructions
system.cpu3.num_vec_alu_accesses                    0                       # Number of vector alu accesses
system.cpu3.num_vec_insts                           0                       # number of vector instructions
system.cpu3.num_vec_register_reads                  0                       # number of times the vector registers were read
system.cpu3.num_vec_register_writes                 0                       # number of times the vector registers were written
system.cpu3.op_class::No_OpClass                    0      0.00%      0.00% # Class of executed instruction
system.cpu3.op_class::IntAlu                       20     83.33%     83.33% # Class of executed instruction
system.cpu3.op_class::IntMult                       1      4.17%     87.50% # Class of executed instruction
system.cpu3.op_class::IntDiv                        0      0.00%     87.50% # Class of executed instruction
system.cpu3.op_class::FloatAdd                      0      0.00%     87.50% # Class of executed instruction
system.cpu3.op_class::FloatCmp                      0      0.00%     87.50% # Class of executed instruction
system.cpu3.op_class::FloatCvt                      0      0.00%     87.50% # Class of executed instruction
system.cpu3.op_class::FloatMult                     0      0.00%     87.50% # Class of executed instruction
system.cpu3.op_class::FloatMultAcc                  0      0.00%     87.50% # Class of executed instruction
system.cpu3.op_class::FloatDiv                      0      0.00%     87.50% # Class of executed instruction
system.cpu3.op_class::FloatMisc                     0      0.00%     87.50% # Class of executed instruction
system.cpu3.op_class::FloatSqrt                     0      0.00%     87.50% # Class of executed instruction
system.cpu3.op_class::SimdAdd                       0      0.00%     87.50% # Class of executed instruction
system.cpu3.op_class::SimdAddAcc                    0      0.00%     87.50% # Class of executed instruction
system.cpu3.op_class::SimdAlu                       0      0.00%     87.50% # Class of executed instruction
system.cpu3.op_class::SimdCmp                       0      0.00%     87.50% # Class of executed instruction
system.cpu3.op_class::SimdCvt                       0      0.00%     87.50% # Class of executed instruction
system.cpu3.op_class::SimdMisc                      0      0.00%     87.50% # Class of executed instruction
system.cpu3.op_class::SimdMult                      0      0.00%     87.50% # Class of executed instruction
system.cpu3.op_class::SimdMultAcc                   0      0.00%     87.50% # Class of executed instruction
system.cpu3.op_class::SimdShift                     0      0.00%     87.50% # Class of executed instruction
system.cpu3.op_class::SimdShiftAcc                  0      0.00%     87.50% # Class of executed instruction
system.cpu3.op_class::SimdDiv                       0      0.00%     87.50% # Class of executed instruction
system.cpu3.op_class::SimdSqrt                      0      0.00%     87.50% # Class of executed instruction
system.cpu3.op_class::SimdFloatAdd                  0      0.00%     87.50% # Class of executed instruction
system.cpu3.op_class::SimdFloatAlu                  0      0.00%     87.50% # Class of executed instruction
system.cpu3.op_class::SimdFloatCmp                  0      0.00%     87.50% # Class of executed instruction
system.cpu3.op_class::SimdFloatCvt                  0      0.00%     87.50% # Class of executed instruction
system.cpu3.op_class::SimdFloatDiv                  0      0.00%     87.50% # Class of executed instruction
system.cpu3.op_class::SimdFloatMisc                 0      0.00%     87.50% # Class of executed instruction
system.cpu3.op_class::SimdFloatMult                 0      0.00%     87.50% # Class of executed instruction
system.cpu3.op_class::SimdFloatMultAcc              0      0.00%     87.50% # Class of executed instruction
system.cpu3.op_class::SimdFloatSqrt                 0      0.00%     87.50% # Class of executed instruction
system.cpu3.op_class::SimdReduceAdd                 0      0.00%     87.50% # Class of executed instruction
system.cpu3.op_class::SimdReduceAlu                 0      0.00%     87.50% # Class of executed instruction
system.cpu3.op_class::SimdReduceCmp                 0      0.00%     87.50% # Class of executed instruction
system.cpu3.op_class::SimdFloatReduceAdd            0      0.00%     87.50% # Class of executed instruction
system.cpu3.op_class::SimdFloatReduceCmp            0      0.00%     87.50% # Class of executed instruction
system.cpu3.op_class::SimdAes                       0      0.00%     87.50% # Class of executed instruction
system.cpu3.op_class::SimdAesMix                    0      0.00%     87.50% # Class of executed instruction
system.cpu3.op_class::SimdSha1Hash                  0      0.00%     87.50% # Class of executed instruction
system.cpu3.op_class::SimdSha1Hash2                 0      0.00%     87.50% # Class of executed instruction
system.cpu3.op_class::SimdSha256Hash                0      0.00%     87.50% # Class of executed instruction
system.cpu3.op_class::SimdSha256Hash2               0      0.00%     87.50% # Class of executed instruction
system.cpu3.op_class::SimdShaSigma2                 0      0.00%     87.50% # Class of executed instruction
system.cpu3.op_class::SimdShaSigma3                 0      0.00%     87.50% # Class of executed instruction
system.cpu3.op_class::SimdPredAlu                   0      0.00%     87.50% # Class of executed instruction
system.cpu3.op_class::MemRead                       2      8.33%     95.83% # Class of executed instruction
system.cpu3.op_class::MemWrite                      1      4.17%    100.00% # Class of executed instruction
system.cpu3.op_class::FloatMemRead                  0      0.00%    100.00% # Class of executed instruction
system.cpu3.op_class::FloatMemWrite                 0      0.00%    100.00% # Class of executed instruction
system.cpu3.op_class::IprAccess                     0      0.00%    100.00% # Class of executed instruction
system.cpu3.op_class::InstPrefetch                  0      0.00%    100.00% # Class of executed instruction
system.cpu3.op_class::total                        24                       # Class of executed instruction
system.cpu3.workload.numSyscalls                    0                       # Number of system calls
system.l3bus.snoop_filter.hit_multi_requests            0                       # Number of requests hitting in the snoop filter with multiple (>1) holders of the requested data.
system.l3bus.snoop_filter.hit_multi_snoops            0                       # Number of snoops hitting in the snoop filter with multiple (>1) holders of the requested data.
system.l3bus.snoop_filter.hit_single_requests      5433666                       # Number of requests hitting in the snoop filter with a single holder of the requested data.
system.l3bus.snoop_filter.hit_single_snoops            0                       # Number of snoops hitting in the snoop filter with a single holder of the requested data.
system.l3bus.snoop_filter.tot_requests       10890095                       # Total number of requests made to the snoop filter.
system.l3bus.snoop_filter.tot_snoops                0                       # Total number of snoops made to the snoop filter.
system.membus.snoop_filter.hit_multi_requests            0                       # Number of requests hitting in the snoop filter with multiple (>1) holders of the requested data.
system.membus.snoop_filter.hit_multi_snoops            0                       # Number of snoops hitting in the snoop filter with multiple (>1) holders of the requested data.
system.membus.snoop_filter.hit_single_requests      4245867                       # Number of requests hitting in the snoop filter with a single holder of the requested data.
system.membus.snoop_filter.hit_single_snoops            0                       # Number of snoops hitting in the snoop filter with a single holder of the requested data.
system.membus.snoop_filter.tot_requests       8573100                       # Total number of requests made to the snoop filter.
system.membus.snoop_filter.tot_snoops               0                       # Total number of snoops made to the snoop filter.
system.switch_cpus0.cc_regfile_reads          4383115                       # number of cc regfile reads
system.switch_cpus0.cc_regfile_writes         4152062                       # number of cc regfile writes
system.switch_cpus0.committedInsts          114623382                       # Number of Instructions Simulated
system.switch_cpus0.committedOps            142963863                       # Number of Ops (including micro ops) Simulated
system.switch_cpus0.cpi                      2.534233                       # CPI: Cycles Per Instruction
system.switch_cpus0.cpi_total                2.534233                       # CPI: Total CPI of All Threads
system.switch_cpus0.fp_regfile_reads        191790840                       # number of floating regfile reads
system.switch_cpus0.fp_regfile_writes       108059641                       # number of floating regfile writes
system.switch_cpus0.idleCycles                 724228                       # Total number of cycles that the CPU has spent unscheduled due to idling
system.switch_cpus0.iew.branchMispredicts          292                       # Number of branch mispredicts detected at execute
system.switch_cpus0.iew.exec_branches         1230390                       # Number of branches executed
system.switch_cpus0.iew.exec_nop                    0                       # number of nop insts executed
system.switch_cpus0.iew.exec_rate            0.492528                       # Inst execution rate
system.switch_cpus0.iew.exec_refs            63962841                       # number of memory reference insts executed
system.switch_cpus0.iew.exec_stores           8743288                       # Number of stores executed
system.switch_cpus0.iew.exec_swp                    0                       # number of swp insts executed
system.switch_cpus0.iew.iewBlockCycles           6975                       # Number of cycles IEW is blocking
system.switch_cpus0.iew.iewDispLoadInsts     55130702                       # Number of dispatched load instructions
system.switch_cpus0.iew.iewDispNonSpecInsts            0                       # Number of dispatched non-speculative instructions
system.switch_cpus0.iew.iewDispSquashedInsts          186                       # Number of squashed instructions skipped by dispatch
system.switch_cpus0.iew.iewDispStoreInsts      8744065                       # Number of dispatched store instructions
system.switch_cpus0.iew.iewDispatchedInsts    142986446                       # Number of instructions dispatched to IQ
system.switch_cpus0.iew.iewExecLoadInsts     55219553                       # Number of load instructions executed
system.switch_cpus0.iew.iewExecSquashedInsts          792                       # Number of squashed instructions skipped in execute
system.switch_cpus0.iew.iewExecutedInsts    143070821                       # Number of executed instructions
system.switch_cpus0.iew.iewIQFullEvents          2219                       # Number of times the IQ has become full, causing a stall
system.switch_cpus0.iew.iewIdleCycles               0                       # Number of cycles IEW is idle
system.switch_cpus0.iew.iewLSQFullEvents     84043617                       # Number of times the LSQ has become full, causing a stall
system.switch_cpus0.iew.iewSquashCycles          1417                       # Number of cycles IEW is squashing
system.switch_cpus0.iew.iewUnblockCycles     84071934                       # Number of cycles IEW is unblocking
system.switch_cpus0.iew.memOrderViolationEvents         1141                       # Number of memory order violations
system.switch_cpus0.iew.predictedNotTakenIncorrect          287                       # Number of branches that were predicted not taken incorrectly
system.switch_cpus0.iew.predictedTakenIncorrect            5                       # Number of branches that were predicted taken incorrectly
system.switch_cpus0.iew.wb_consumers        158350948                       # num instructions consuming a value
system.switch_cpus0.iew.wb_count            142980621                       # cumulative count of insts written-back
system.switch_cpus0.iew.wb_fanout            0.655733                       # average fanout of values written-back
system.switch_cpus0.iew.wb_producers        103835900                       # num instructions producing a value
system.switch_cpus0.iew.wb_rate              0.492218                       # insts written-back per cycle
system.switch_cpus0.iew.wb_sent             142980824                       # cumulative count of insts sent to commit
system.switch_cpus0.int_regfile_reads       139060533                       # number of integer regfile reads
system.switch_cpus0.int_regfile_writes       24736220                       # number of integer regfile writes
system.switch_cpus0.ipc                      0.394597                       # IPC: Instructions Per Cycle
system.switch_cpus0.ipc_total                0.394597                       # IPC: Total IPC of All Threads
system.switch_cpus0.iq.FU_type_0::No_OpClass           32      0.00%      0.00% # Type of FU issued
system.switch_cpus0.iq.FU_type_0::IntAlu     24118484     16.86%     16.86% # Type of FU issued
system.switch_cpus0.iq.FU_type_0::IntMult            0      0.00%     16.86% # Type of FU issued
system.switch_cpus0.iq.FU_type_0::IntDiv            0      0.00%     16.86% # Type of FU issued
system.switch_cpus0.iq.FU_type_0::FloatAdd       518740      0.36%     17.22% # Type of FU issued
system.switch_cpus0.iq.FU_type_0::FloatCmp            0      0.00%     17.22% # Type of FU issued
system.switch_cpus0.iq.FU_type_0::FloatCvt            0      0.00%     17.22% # Type of FU issued
system.switch_cpus0.iq.FU_type_0::FloatMult            0      0.00%     17.22% # Type of FU issued
system.switch_cpus0.iq.FU_type_0::FloatMultAcc            0      0.00%     17.22% # Type of FU issued
system.switch_cpus0.iq.FU_type_0::FloatDiv            0      0.00%     17.22% # Type of FU issued
system.switch_cpus0.iq.FU_type_0::FloatMisc            0      0.00%     17.22% # Type of FU issued
system.switch_cpus0.iq.FU_type_0::FloatSqrt            0      0.00%     17.22% # Type of FU issued
system.switch_cpus0.iq.FU_type_0::SimdAdd            0      0.00%     17.22% # Type of FU issued
system.switch_cpus0.iq.FU_type_0::SimdAddAcc            0      0.00%     17.22% # Type of FU issued
system.switch_cpus0.iq.FU_type_0::SimdAlu       384242      0.27%     17.49% # Type of FU issued
system.switch_cpus0.iq.FU_type_0::SimdCmp            0      0.00%     17.49% # Type of FU issued
system.switch_cpus0.iq.FU_type_0::SimdCvt            0      0.00%     17.49% # Type of FU issued
system.switch_cpus0.iq.FU_type_0::SimdMisc       230544      0.16%     17.65% # Type of FU issued
system.switch_cpus0.iq.FU_type_0::SimdMult            0      0.00%     17.65% # Type of FU issued
system.switch_cpus0.iq.FU_type_0::SimdMultAcc            0      0.00%     17.65% # Type of FU issued
system.switch_cpus0.iq.FU_type_0::SimdShift            0      0.00%     17.65% # Type of FU issued
system.switch_cpus0.iq.FU_type_0::SimdShiftAcc            0      0.00%     17.65% # Type of FU issued
system.switch_cpus0.iq.FU_type_0::SimdDiv            0      0.00%     17.65% # Type of FU issued
system.switch_cpus0.iq.FU_type_0::SimdSqrt            0      0.00%     17.65% # Type of FU issued
system.switch_cpus0.iq.FU_type_0::SimdFloatAdd     30088930     21.03%     38.68% # Type of FU issued
system.switch_cpus0.iq.FU_type_0::SimdFloatAlu            0      0.00%     38.68% # Type of FU issued
system.switch_cpus0.iq.FU_type_0::SimdFloatCmp        38424      0.03%     38.71% # Type of FU issued
system.switch_cpus0.iq.FU_type_0::SimdFloatCvt       211602      0.15%     38.86% # Type of FU issued
system.switch_cpus0.iq.FU_type_0::SimdFloatDiv        57636      0.04%     38.90% # Type of FU issued
system.switch_cpus0.iq.FU_type_0::SimdFloatMisc            0      0.00%     38.90% # Type of FU issued
system.switch_cpus0.iq.FU_type_0::SimdFloatMult     23459836     16.40%     55.29% # Type of FU issued
system.switch_cpus0.iq.FU_type_0::SimdFloatMultAcc            0      0.00%     55.29% # Type of FU issued
system.switch_cpus0.iq.FU_type_0::SimdFloatSqrt            0      0.00%     55.29% # Type of FU issued
system.switch_cpus0.iq.FU_type_0::SimdReduceAdd            0      0.00%     55.29% # Type of FU issued
system.switch_cpus0.iq.FU_type_0::SimdReduceAlu            0      0.00%     55.29% # Type of FU issued
system.switch_cpus0.iq.FU_type_0::SimdReduceCmp            0      0.00%     55.29% # Type of FU issued
system.switch_cpus0.iq.FU_type_0::SimdFloatReduceAdd            0      0.00%     55.29% # Type of FU issued
system.switch_cpus0.iq.FU_type_0::SimdFloatReduceCmp            0      0.00%     55.29% # Type of FU issued
system.switch_cpus0.iq.FU_type_0::SimdAes            0      0.00%     55.29% # Type of FU issued
system.switch_cpus0.iq.FU_type_0::SimdAesMix            0      0.00%     55.29% # Type of FU issued
system.switch_cpus0.iq.FU_type_0::SimdSha1Hash            0      0.00%     55.29% # Type of FU issued
system.switch_cpus0.iq.FU_type_0::SimdSha1Hash2            0      0.00%     55.29% # Type of FU issued
system.switch_cpus0.iq.FU_type_0::SimdSha256Hash            0      0.00%     55.29% # Type of FU issued
system.switch_cpus0.iq.FU_type_0::SimdSha256Hash2            0      0.00%     55.29% # Type of FU issued
system.switch_cpus0.iq.FU_type_0::SimdShaSigma2            0      0.00%     55.29% # Type of FU issued
system.switch_cpus0.iq.FU_type_0::SimdShaSigma3            0      0.00%     55.29% # Type of FU issued
system.switch_cpus0.iq.FU_type_0::SimdPredAlu            0      0.00%     55.29% # Type of FU issued
system.switch_cpus0.iq.FU_type_0::MemRead     12748784      8.91%     64.20% # Type of FU issued
system.switch_cpus0.iq.FU_type_0::MemWrite      1518590      1.06%     65.27% # Type of FU issued
system.switch_cpus0.iq.FU_type_0::FloatMemRead     42470981     29.69%     94.95% # Type of FU issued
system.switch_cpus0.iq.FU_type_0::FloatMemWrite      7224788      5.05%    100.00% # Type of FU issued
system.switch_cpus0.iq.FU_type_0::IprAccess            0      0.00%    100.00% # Type of FU issued
system.switch_cpus0.iq.FU_type_0::InstPrefetch            0      0.00%    100.00% # Type of FU issued
system.switch_cpus0.iq.FU_type_0::total     143071613                       # Type of FU issued
system.switch_cpus0.iq.fp_alu_accesses      117245246                       # Number of floating point alu accesses
system.switch_cpus0.iq.fp_inst_queue_reads    233036160                       # Number of floating instruction queue reads
system.switch_cpus0.iq.fp_inst_queue_wakeup_accesses    115726066                       # Number of floating instruction queue wakeup accesses
system.switch_cpus0.iq.fp_inst_queue_writes    115747208                       # Number of floating instruction queue writes
system.switch_cpus0.iq.fu_busy_cnt            2123635                       # FU busy when requested
system.switch_cpus0.iq.fu_busy_rate          0.014843                       # FU busy rate (busy events/executed inst)
system.switch_cpus0.iq.fu_full::No_OpClass            0      0.00%      0.00% # attempts to use FU when none available
system.switch_cpus0.iq.fu_full::IntAlu          15459      0.73%      0.73% # attempts to use FU when none available
system.switch_cpus0.iq.fu_full::IntMult             0      0.00%      0.73% # attempts to use FU when none available
system.switch_cpus0.iq.fu_full::IntDiv              0      0.00%      0.73% # attempts to use FU when none available
system.switch_cpus0.iq.fu_full::FloatAdd            0      0.00%      0.73% # attempts to use FU when none available
system.switch_cpus0.iq.fu_full::FloatCmp            0      0.00%      0.73% # attempts to use FU when none available
system.switch_cpus0.iq.fu_full::FloatCvt            0      0.00%      0.73% # attempts to use FU when none available
system.switch_cpus0.iq.fu_full::FloatMult            0      0.00%      0.73% # attempts to use FU when none available
system.switch_cpus0.iq.fu_full::FloatMultAcc            0      0.00%      0.73% # attempts to use FU when none available
system.switch_cpus0.iq.fu_full::FloatDiv            0      0.00%      0.73% # attempts to use FU when none available
system.switch_cpus0.iq.fu_full::FloatMisc            0      0.00%      0.73% # attempts to use FU when none available
system.switch_cpus0.iq.fu_full::FloatSqrt            0      0.00%      0.73% # attempts to use FU when none available
system.switch_cpus0.iq.fu_full::SimdAdd             0      0.00%      0.73% # attempts to use FU when none available
system.switch_cpus0.iq.fu_full::SimdAddAcc            0      0.00%      0.73% # attempts to use FU when none available
system.switch_cpus0.iq.fu_full::SimdAlu             0      0.00%      0.73% # attempts to use FU when none available
system.switch_cpus0.iq.fu_full::SimdCmp             0      0.00%      0.73% # attempts to use FU when none available
system.switch_cpus0.iq.fu_full::SimdCvt             0      0.00%      0.73% # attempts to use FU when none available
system.switch_cpus0.iq.fu_full::SimdMisc            0      0.00%      0.73% # attempts to use FU when none available
system.switch_cpus0.iq.fu_full::SimdMult            0      0.00%      0.73% # attempts to use FU when none available
system.switch_cpus0.iq.fu_full::SimdMultAcc            0      0.00%      0.73% # attempts to use FU when none available
system.switch_cpus0.iq.fu_full::SimdShift            0      0.00%      0.73% # attempts to use FU when none available
system.switch_cpus0.iq.fu_full::SimdShiftAcc            0      0.00%      0.73% # attempts to use FU when none available
system.switch_cpus0.iq.fu_full::SimdDiv             0      0.00%      0.73% # attempts to use FU when none available
system.switch_cpus0.iq.fu_full::SimdSqrt            0      0.00%      0.73% # attempts to use FU when none available
system.switch_cpus0.iq.fu_full::SimdFloatAdd          250      0.01%      0.74% # attempts to use FU when none available
system.switch_cpus0.iq.fu_full::SimdFloatAlu            0      0.00%      0.74% # attempts to use FU when none available
system.switch_cpus0.iq.fu_full::SimdFloatCmp            0      0.00%      0.74% # attempts to use FU when none available
system.switch_cpus0.iq.fu_full::SimdFloatCvt            0      0.00%      0.74% # attempts to use FU when none available
system.switch_cpus0.iq.fu_full::SimdFloatDiv            0      0.00%      0.74% # attempts to use FU when none available
system.switch_cpus0.iq.fu_full::SimdFloatMisc            0      0.00%      0.74% # attempts to use FU when none available
system.switch_cpus0.iq.fu_full::SimdFloatMult       125632      5.92%      6.66% # attempts to use FU when none available
system.switch_cpus0.iq.fu_full::SimdFloatMultAcc            0      0.00%      6.66% # attempts to use FU when none available
system.switch_cpus0.iq.fu_full::SimdFloatSqrt            0      0.00%      6.66% # attempts to use FU when none available
system.switch_cpus0.iq.fu_full::SimdReduceAdd            0      0.00%      6.66% # attempts to use FU when none available
system.switch_cpus0.iq.fu_full::SimdReduceAlu            0      0.00%      6.66% # attempts to use FU when none available
system.switch_cpus0.iq.fu_full::SimdReduceCmp            0      0.00%      6.66% # attempts to use FU when none available
system.switch_cpus0.iq.fu_full::SimdFloatReduceAdd            0      0.00%      6.66% # attempts to use FU when none available
system.switch_cpus0.iq.fu_full::SimdFloatReduceCmp            0      0.00%      6.66% # attempts to use FU when none available
system.switch_cpus0.iq.fu_full::SimdAes             0      0.00%      6.66% # attempts to use FU when none available
system.switch_cpus0.iq.fu_full::SimdAesMix            0      0.00%      6.66% # attempts to use FU when none available
system.switch_cpus0.iq.fu_full::SimdSha1Hash            0      0.00%      6.66% # attempts to use FU when none available
system.switch_cpus0.iq.fu_full::SimdSha1Hash2            0      0.00%      6.66% # attempts to use FU when none available
system.switch_cpus0.iq.fu_full::SimdSha256Hash            0      0.00%      6.66% # attempts to use FU when none available
system.switch_cpus0.iq.fu_full::SimdSha256Hash2            0      0.00%      6.66% # attempts to use FU when none available
system.switch_cpus0.iq.fu_full::SimdShaSigma2            0      0.00%      6.66% # attempts to use FU when none available
system.switch_cpus0.iq.fu_full::SimdShaSigma3            0      0.00%      6.66% # attempts to use FU when none available
system.switch_cpus0.iq.fu_full::SimdPredAlu            0      0.00%      6.66% # attempts to use FU when none available
system.switch_cpus0.iq.fu_full::MemRead        636753     29.98%     36.64% # attempts to use FU when none available
system.switch_cpus0.iq.fu_full::MemWrite        19894      0.94%     37.58% # attempts to use FU when none available
system.switch_cpus0.iq.fu_full::FloatMemRead      1230835     57.96%     95.54% # attempts to use FU when none available
system.switch_cpus0.iq.fu_full::FloatMemWrite        94812      4.46%    100.00% # attempts to use FU when none available
system.switch_cpus0.iq.fu_full::IprAccess            0      0.00%    100.00% # attempts to use FU when none available
system.switch_cpus0.iq.fu_full::InstPrefetch            0      0.00%    100.00% # attempts to use FU when none available
system.switch_cpus0.iq.int_alu_accesses      27949970                       # Number of integer alu accesses
system.switch_cpus0.iq.int_inst_queue_reads    344988845                       # Number of integer instruction queue reads
system.switch_cpus0.iq.int_inst_queue_wakeup_accesses     27254555                       # Number of integer instruction queue wakeup accesses
system.switch_cpus0.iq.int_inst_queue_writes     27262962                       # Number of integer instruction queue writes
system.switch_cpus0.iq.iqInstsAdded         142986446                       # Number of instructions added to the IQ (excludes non-spec)
system.switch_cpus0.iq.iqInstsIssued        143071613                       # Number of instructions issued
system.switch_cpus0.iq.iqSquashedInstsExamined        22583                       # Number of squashed instructions iterated over during squash; mainly for profiling
system.switch_cpus0.iq.iqSquashedInstsIssued           43                       # Number of squashed instructions issued
system.switch_cpus0.iq.iqSquashedOperandsExamined        16717                       # Number of squashed operands that are examined and possibly removed from graph
system.switch_cpus0.iq.issued_per_cycle::samples    289758101                       # Number of insts issued each cycle
system.switch_cpus0.iq.issued_per_cycle::mean     0.493762                       # Number of insts issued each cycle
system.switch_cpus0.iq.issued_per_cycle::stdev     1.180097                       # Number of insts issued each cycle
system.switch_cpus0.iq.issued_per_cycle::underflows            0      0.00%      0.00% # Number of insts issued each cycle
system.switch_cpus0.iq.issued_per_cycle::0    227690011     78.58%     78.58% # Number of insts issued each cycle
system.switch_cpus0.iq.issued_per_cycle::1     26330414      9.09%     87.67% # Number of insts issued each cycle
system.switch_cpus0.iq.issued_per_cycle::2     14107374      4.87%     92.54% # Number of insts issued each cycle
system.switch_cpus0.iq.issued_per_cycle::3      8158659      2.82%     95.35% # Number of insts issued each cycle
system.switch_cpus0.iq.issued_per_cycle::4      7158487      2.47%     97.82% # Number of insts issued each cycle
system.switch_cpus0.iq.issued_per_cycle::5      3760061      1.30%     99.12% # Number of insts issued each cycle
system.switch_cpus0.iq.issued_per_cycle::6      1586886      0.55%     99.67% # Number of insts issued each cycle
system.switch_cpus0.iq.issued_per_cycle::7       634767      0.22%     99.89% # Number of insts issued each cycle
system.switch_cpus0.iq.issued_per_cycle::8       331442      0.11%    100.00% # Number of insts issued each cycle
system.switch_cpus0.iq.issued_per_cycle::overflows            0      0.00%    100.00% # Number of insts issued each cycle
system.switch_cpus0.iq.issued_per_cycle::min_value            0                       # Number of insts issued each cycle
system.switch_cpus0.iq.issued_per_cycle::max_value            8                       # Number of insts issued each cycle
system.switch_cpus0.iq.issued_per_cycle::total    289758101                       # Number of insts issued each cycle
system.switch_cpus0.iq.rate                  0.492531                       # Inst issue rate
system.switch_cpus0.iq.vec_alu_accesses             0                       # Number of vector alu accesses
system.switch_cpus0.iq.vec_inst_queue_reads            0                       # Number of vector instruction queue reads
system.switch_cpus0.iq.vec_inst_queue_wakeup_accesses            0                       # Number of vector instruction queue wakeup accesses
system.switch_cpus0.iq.vec_inst_queue_writes            0                       # Number of vector instruction queue writes
system.switch_cpus0.memDep0.conflictingLoads       106338                       # Number of conflicting loads.
system.switch_cpus0.memDep0.conflictingStores        15250                       # Number of conflicting stores.
system.switch_cpus0.memDep0.insertedLoads     55130702                       # Number of loads inserted to the mem dependence unit.
system.switch_cpus0.memDep0.insertedStores      8744065                       # Number of stores inserted to the mem dependence unit.
system.switch_cpus0.misc_regfile_reads       71822567                       # number of misc regfile reads
system.switch_cpus0.misc_regfile_writes             1                       # number of misc regfile writes
system.switch_cpus0.numCycles               290482329                       # number of cpu cycles simulated
system.switch_cpus0.numWorkItemsCompleted            0                       # number of work items this cpu completed
system.switch_cpus0.numWorkItemsStarted             0                       # number of work items this cpu started
system.switch_cpus0.timesIdled                 106858                       # Number of times that the entire CPU went into an idle state and unscheduled itself
system.switch_cpus1.cc_regfile_reads          5426728                       # number of cc regfile reads
system.switch_cpus1.cc_regfile_writes         2568401                       # number of cc regfile writes
system.switch_cpus1.committedInsts          150982533                       # Number of Instructions Simulated
system.switch_cpus1.committedOps            165984521                       # Number of Ops (including micro ops) Simulated
system.switch_cpus1.cpi                      1.923947                       # CPI: Cycles Per Instruction
system.switch_cpus1.cpi_total                1.923947                       # CPI: Total CPI of All Threads
system.switch_cpus1.fp_regfile_reads        277314612                       # number of floating regfile reads
system.switch_cpus1.fp_regfile_writes       125120796                       # number of floating regfile writes
system.switch_cpus1.idleCycles                  10448                       # Total number of cycles that the CPU has spent unscheduled due to idling
system.switch_cpus1.iew.branchMispredicts         3256                       # Number of branch mispredicts detected at execute
system.switch_cpus1.iew.exec_branches          958075                       # Number of branches executed
system.switch_cpus1.iew.exec_nop                    0                       # number of nop insts executed
system.switch_cpus1.iew.exec_rate            0.677893                       # Inst execution rate
system.switch_cpus1.iew.exec_refs            96061493                       # number of memory reference insts executed
system.switch_cpus1.iew.exec_stores          18576128                       # Number of stores executed
system.switch_cpus1.iew.exec_swp                    0                       # number of swp insts executed
system.switch_cpus1.iew.iewBlockCycles       62465559                       # Number of cycles IEW is blocking
system.switch_cpus1.iew.iewDispLoadInsts     46664107                       # Number of dispatched load instructions
system.switch_cpus1.iew.iewDispNonSpecInsts            0                       # Number of dispatched non-speculative instructions
system.switch_cpus1.iew.iewDispSquashedInsts          227                       # Number of squashed instructions skipped by dispatch
system.switch_cpus1.iew.iewDispStoreInsts     18604703                       # Number of dispatched store instructions
system.switch_cpus1.iew.iewDispatchedInsts    166136646                       # Number of instructions dispatched to IQ
system.switch_cpus1.iew.iewExecLoadInsts     77485365                       # Number of load instructions executed
system.switch_cpus1.iew.iewExecSquashedInsts         1470                       # Number of squashed instructions skipped in execute
system.switch_cpus1.iew.iewExecutedInsts    196915809                       # Number of executed instructions
system.switch_cpus1.iew.iewIQFullEvents        406883                       # Number of times the IQ has become full, causing a stall
system.switch_cpus1.iew.iewIdleCycles               0                       # Number of cycles IEW is idle
system.switch_cpus1.iew.iewLSQFullEvents     52700608                       # Number of times the LSQ has become full, causing a stall
system.switch_cpus1.iew.iewSquashCycles          3864                       # Number of cycles IEW is squashing
system.switch_cpus1.iew.iewUnblockCycles     53175370                       # Number of cycles IEW is unblocking
system.switch_cpus1.iew.memOrderViolationEvents         1258                       # Number of memory order violations
system.switch_cpus1.iew.predictedNotTakenIncorrect         3222                       # Number of branches that were predicted not taken incorrectly
system.switch_cpus1.iew.predictedTakenIncorrect           34                       # Number of branches that were predicted taken incorrectly
system.switch_cpus1.iew.wb_consumers        228673531                       # num instructions consuming a value
system.switch_cpus1.iew.wb_count            166060155                       # cumulative count of insts written-back
system.switch_cpus1.iew.wb_fanout            0.534477                       # average fanout of values written-back
system.switch_cpus1.iew.wb_producers        122220855                       # num instructions producing a value
system.switch_cpus1.iew.wb_rate              0.571670                       # insts written-back per cycle
system.switch_cpus1.iew.wb_sent             166061011                       # cumulative count of insts sent to commit
system.switch_cpus1.int_regfile_reads       213333320                       # number of integer regfile reads
system.switch_cpus1.int_regfile_writes       21406106                       # number of integer regfile writes
system.switch_cpus1.ipc                      0.519765                       # IPC: Instructions Per Cycle
system.switch_cpus1.ipc_total                0.519765                       # IPC: Total IPC of All Threads
system.switch_cpus1.iq.FU_type_0::No_OpClass            0      0.00%      0.00% # Type of FU issued
system.switch_cpus1.iq.FU_type_0::IntAlu     24133051     12.26%     12.26% # Type of FU issued
system.switch_cpus1.iq.FU_type_0::IntMult            0      0.00%     12.26% # Type of FU issued
system.switch_cpus1.iq.FU_type_0::IntDiv            0      0.00%     12.26% # Type of FU issued
system.switch_cpus1.iq.FU_type_0::FloatAdd            0      0.00%     12.26% # Type of FU issued
system.switch_cpus1.iq.FU_type_0::FloatCmp            0      0.00%     12.26% # Type of FU issued
system.switch_cpus1.iq.FU_type_0::FloatCvt            0      0.00%     12.26% # Type of FU issued
system.switch_cpus1.iq.FU_type_0::FloatMult            0      0.00%     12.26% # Type of FU issued
system.switch_cpus1.iq.FU_type_0::FloatMultAcc            0      0.00%     12.26% # Type of FU issued
system.switch_cpus1.iq.FU_type_0::FloatDiv            0      0.00%     12.26% # Type of FU issued
system.switch_cpus1.iq.FU_type_0::FloatMisc            0      0.00%     12.26% # Type of FU issued
system.switch_cpus1.iq.FU_type_0::FloatSqrt            0      0.00%     12.26% # Type of FU issued
system.switch_cpus1.iq.FU_type_0::SimdAdd            0      0.00%     12.26% # Type of FU issued
system.switch_cpus1.iq.FU_type_0::SimdAddAcc            0      0.00%     12.26% # Type of FU issued
system.switch_cpus1.iq.FU_type_0::SimdAlu          293      0.00%     12.26% # Type of FU issued
system.switch_cpus1.iq.FU_type_0::SimdCmp            0      0.00%     12.26% # Type of FU issued
system.switch_cpus1.iq.FU_type_0::SimdCvt            0      0.00%     12.26% # Type of FU issued
system.switch_cpus1.iq.FU_type_0::SimdMisc            0      0.00%     12.26% # Type of FU issued
system.switch_cpus1.iq.FU_type_0::SimdMult            0      0.00%     12.26% # Type of FU issued
system.switch_cpus1.iq.FU_type_0::SimdMultAcc            0      0.00%     12.26% # Type of FU issued
system.switch_cpus1.iq.FU_type_0::SimdShift            0      0.00%     12.26% # Type of FU issued
system.switch_cpus1.iq.FU_type_0::SimdShiftAcc            0      0.00%     12.26% # Type of FU issued
system.switch_cpus1.iq.FU_type_0::SimdDiv            0      0.00%     12.26% # Type of FU issued
system.switch_cpus1.iq.FU_type_0::SimdSqrt            0      0.00%     12.26% # Type of FU issued
system.switch_cpus1.iq.FU_type_0::SimdFloatAdd     47214127     23.98%     36.23% # Type of FU issued
system.switch_cpus1.iq.FU_type_0::SimdFloatAlu            0      0.00%     36.23% # Type of FU issued
system.switch_cpus1.iq.FU_type_0::SimdFloatCmp            0      0.00%     36.23% # Type of FU issued
system.switch_cpus1.iq.FU_type_0::SimdFloatCvt            0      0.00%     36.23% # Type of FU issued
system.switch_cpus1.iq.FU_type_0::SimdFloatDiv       931488      0.47%     36.71% # Type of FU issued
system.switch_cpus1.iq.FU_type_0::SimdFloatMisc            0      0.00%     36.71% # Type of FU issued
system.switch_cpus1.iq.FU_type_0::SimdFloatMult     28575428     14.51%     51.22% # Type of FU issued
system.switch_cpus1.iq.FU_type_0::SimdFloatMultAcc            0      0.00%     51.22% # Type of FU issued
system.switch_cpus1.iq.FU_type_0::SimdFloatSqrt            0      0.00%     51.22% # Type of FU issued
system.switch_cpus1.iq.FU_type_0::SimdReduceAdd            0      0.00%     51.22% # Type of FU issued
system.switch_cpus1.iq.FU_type_0::SimdReduceAlu            0      0.00%     51.22% # Type of FU issued
system.switch_cpus1.iq.FU_type_0::SimdReduceCmp            0      0.00%     51.22% # Type of FU issued
system.switch_cpus1.iq.FU_type_0::SimdFloatReduceAdd            0      0.00%     51.22% # Type of FU issued
system.switch_cpus1.iq.FU_type_0::SimdFloatReduceCmp            0      0.00%     51.22% # Type of FU issued
system.switch_cpus1.iq.FU_type_0::SimdAes            0      0.00%     51.22% # Type of FU issued
system.switch_cpus1.iq.FU_type_0::SimdAesMix            0      0.00%     51.22% # Type of FU issued
system.switch_cpus1.iq.FU_type_0::SimdSha1Hash            0      0.00%     51.22% # Type of FU issued
system.switch_cpus1.iq.FU_type_0::SimdSha1Hash2            0      0.00%     51.22% # Type of FU issued
system.switch_cpus1.iq.FU_type_0::SimdSha256Hash            0      0.00%     51.22% # Type of FU issued
system.switch_cpus1.iq.FU_type_0::SimdSha256Hash2            0      0.00%     51.22% # Type of FU issued
system.switch_cpus1.iq.FU_type_0::SimdShaSigma2            0      0.00%     51.22% # Type of FU issued
system.switch_cpus1.iq.FU_type_0::SimdShaSigma3            0      0.00%     51.22% # Type of FU issued
system.switch_cpus1.iq.FU_type_0::SimdPredAlu            0      0.00%     51.22% # Type of FU issued
[...]
system.switch_cpus3.commit.numCommittedDist::0    144026091     56.04%     56.04% # Number of insts commited each cycle
system.switch_cpus3.commit.numCommittedDist::1     43630524     16.98%     73.02% # Number of insts commited each cycle
system.switch_cpus3.commit.numCommittedDist::2      9775712      3.80%     76.82% # Number of insts commited each cycle
system.switch_cpus3.commit.numCommittedDist::3     24809653      9.65%     86.48% # Number of insts commited each cycle
system.switch_cpus3.commit.numCommittedDist::4      8331389      3.24%     89.72% # Number of insts commited each cycle
system.switch_cpus3.commit.numCommittedDist::5      4520416      1.76%     91.48% # Number of insts commited each cycle
system.switch_cpus3.commit.numCommittedDist::6      2187015      0.85%     92.33% # Number of insts commited each cycle
system.switch_cpus3.commit.numCommittedDist::7      1748441      0.68%     93.01% # Number of insts commited each cycle
system.switch_cpus3.commit.numCommittedDist::8     17970110      6.99%    100.00% # Number of insts commited each cycle
system.switch_cpus3.commit.numCommittedDist::overflows            0      0.00%    100.00% # Number of insts commited each cycle
system.switch_cpus3.commit.numCommittedDist::min_value            0                       # Number of insts commited each cycle
system.switch_cpus3.commit.numCommittedDist::max_value            8                       # Number of insts commited each cycle
system.switch_cpus3.commit.numCommittedDist::total    256999351                       # Number of insts commited each cycle
system.switch_cpus3.commit.instsCommitted    250000002                       # Number of instructions committed
system.switch_cpus3.commit.opsCommitted     362660600                       # Number of ops (including micro ops) committed
system.switch_cpus3.commit.memRefs           52938163                       # Number of memory references committed
system.switch_cpus3.commit.loads             36975535                       # Number of loads committed
system.switch_cpus3.commit.amos                     0                       # Number of atomic instructions committed
system.switch_cpus3.commit.membars                  0                       # Number of memory barriers committed
system.switch_cpus3.commit.branches          29655698                       # Number of branches committed
system.switch_cpus3.commit.vector                   0                       # Number of committed Vector instructions.
system.switch_cpus3.commit.floating           1283736                       # Number of committed floating point instructions.
system.switch_cpus3.commit.integer          362659128                       # Number of committed integer instructions.
system.switch_cpus3.commit.functionCalls        63870                       # Number of function calls committed.
system.switch_cpus3.commit.committedInstType_0::No_OpClass          752      0.00%      0.00% # Class of committed instruction
system.switch_cpus3.commit.committedInstType_0::IntAlu    300745823     82.93%     82.93% # Class of committed instruction
system.switch_cpus3.commit.committedInstType_0::IntMult      8975862      2.48%     85.40% # Class of committed instruction
system.switch_cpus3.commit.committedInstType_0::IntDiv            0      0.00%     85.40% # Class of committed instruction
system.switch_cpus3.commit.committedInstType_0::FloatAdd            0      0.00%     85.40% # Class of committed instruction
system.switch_cpus3.commit.committedInstType_0::FloatCmp            0      0.00%     85.40% # Class of committed instruction
system.switch_cpus3.commit.committedInstType_0::FloatCvt            0      0.00%     85.40% # Class of committed instruction
system.switch_cpus3.commit.committedInstType_0::FloatMult            0      0.00%     85.40% # Class of committed instruction
system.switch_cpus3.commit.committedInstType_0::FloatMultAcc            0      0.00%     85.40% # Class of committed instruction
system.switch_cpus3.commit.committedInstType_0::FloatDiv            0      0.00%     85.40% # Class of committed instruction
system.switch_cpus3.commit.committedInstType_0::FloatMisc            0      0.00%     85.40% # Class of committed instruction
system.switch_cpus3.commit.committedInstType_0::FloatSqrt            0      0.00%     85.40% # Class of committed instruction
system.switch_cpus3.commit.committedInstType_0::SimdAdd            0      0.00%     85.40% # Class of committed instruction
system.switch_cpus3.commit.committedInstType_0::SimdAddAcc            0      0.00%     85.40% # Class of committed instruction
system.switch_cpus3.commit.committedInstType_0::SimdAlu            0      0.00%     85.40% # Class of committed instruction
system.switch_cpus3.commit.committedInstType_0::SimdCmp            0      0.00%     85.40% # Class of committed instruction
system.switch_cpus3.commit.committedInstType_0::SimdCvt            0      0.00%     85.40% # Class of committed instruction
system.switch_cpus3.commit.committedInstType_0::SimdMisc            0      0.00%     85.40% # Class of committed instruction
system.switch_cpus3.commit.committedInstType_0::SimdMult            0      0.00%     85.40% # Class of committed instruction
system.switch_cpus3.commit.committedInstType_0::SimdMultAcc            0      0.00%     85.40% # Class of committed instruction
system.switch_cpus3.commit.committedInstType_0::SimdShift            0      0.00%     85.40% # Class of committed instruction
system.switch_cpus3.commit.committedInstType_0::SimdShiftAcc            0      0.00%     85.40% # Class of committed instruction
system.switch_cpus3.commit.committedInstType_0::SimdDiv            0      0.00%     85.40% # Class of committed instruction
system.switch_cpus3.commit.committedInstType_0::SimdSqrt            0      0.00%     85.40% # Class of committed instruction
system.switch_cpus3.commit.committedInstType_0::SimdFloatAdd            0      0.00%     85.40% # Class of committed instruction
system.switch_cpus3.commit.committedInstType_0::SimdFloatAlu            0      0.00%     85.40% # Class of committed instruction
system.switch_cpus3.commit.committedInstType_0::SimdFloatCmp            0      0.00%     85.40% # Class of committed instruction
system.switch_cpus3.commit.committedInstType_0::SimdFloatCvt            0      0.00%     85.40% # Class of committed instruction
system.switch_cpus3.commit.committedInstType_0::SimdFloatDiv            0      0.00%     85.40% # Class of committed instruction
system.switch_cpus3.commit.committedInstType_0::SimdFloatMisc            0      0.00%     85.40% # Class of committed instruction
system.switch_cpus3.commit.committedInstType_0::SimdFloatMult            0      0.00%     85.40% # Class of committed instruction
system.switch_cpus3.commit.committedInstType_0::SimdFloatMultAcc            0      0.00%     85.40% # Class of committed instruction
system.switch_cpus3.commit.committedInstType_0::SimdFloatSqrt            0      0.00%     85.40% # Class of committed instruction
system.switch_cpus3.commit.committedInstType_0::SimdReduceAdd            0      0.00%     85.40% # Class of committed instruction
system.switch_cpus3.commit.committedInstType_0::SimdReduceAlu            0      0.00%     85.40% # Class of committed instruction
system.switch_cpus3.commit.committedInstType_0::SimdReduceCmp            0      0.00%     85.40% # Class of committed instruction
system.switch_cpus3.commit.committedInstType_0::SimdFloatReduceAdd            0      0.00%     85.40% # Class of committed instruction
system.switch_cpus3.commit.committedInstType_0::SimdFloatReduceCmp            0      0.00%     85.40% # Class of committed instruction
system.switch_cpus3.commit.committedInstType_0::SimdAes            0      0.00%     85.40% # Class of committed instruction
system.switch_cpus3.commit.committedInstType_0::SimdAesMix            0      0.00%     85.40% # Class of committed instruction
system.switch_cpus3.commit.committedInstType_0::SimdSha1Hash            0      0.00%     85.40% # Class of committed instruction
system.switch_cpus3.commit.committedInstType_0::SimdSha1Hash2            0      0.00%     85.40% # Class of committed instruction
system.switch_cpus3.commit.committedInstType_0::SimdSha256Hash            0      0.00%     85.40% # Class of committed instruction
system.switch_cpus3.commit.committedInstType_0::SimdSha256Hash2            0      0.00%     85.40% # Class of committed instruction
system.switch_cpus3.commit.committedInstType_0::SimdShaSigma2            0      0.00%     85.40% # Class of committed instruction
system.switch_cpus3.commit.committedInstType_0::SimdShaSigma3            0      0.00%     85.40% # Class of committed instruction
system.switch_cpus3.commit.committedInstType_0::SimdPredAlu            0      0.00%     85.40% # Class of committed instruction
system.switch_cpus3.commit.committedInstType_0::MemRead     36333667     10.02%     95.42% # Class of committed instruction
system.switch_cpus3.commit.committedInstType_0::MemWrite     15320760      4.22%     99.65% # Class of committed instruction
system.switch_cpus3.commit.committedInstType_0::FloatMemRead       641868      0.18%     99.82% # Class of committed instruction
system.switch_cpus3.commit.committedInstType_0::FloatMemWrite       641868      0.18%    100.00% # Class of committed instruction
system.switch_cpus3.commit.committedInstType_0::IprAccess            0      0.00%    100.00% # Class of committed instruction
system.switch_cpus3.commit.committedInstType_0::InstPrefetch            0      0.00%    100.00% # Class of committed instruction
system.switch_cpus3.commit.committedInstType_0::total    362660600                       # Class of committed instruction
system.switch_cpus3.commit.commitEligibleSamples     17970110                       # number cycles where commit BW limit reached
system.switch_cpus3.decode.idleCycles        18845493                       # Number of cycles decode is idle
system.switch_cpus3.decode.blockedCycles    175545177                       # Number of cycles decode is blocked
system.switch_cpus3.decode.runCycles         62263147                       # Number of cycles decode is running
system.switch_cpus3.decode.unblockCycles     30381603                       # Number of cycles decode is unblocking
system.switch_cpus3.decode.squashCycles       3309468                       # Number of cycles decode is squashing
system.switch_cpus3.decode.branchResolved     37094990                       # Number of times decode resolved a  branch
system.switch_cpus3.decode.branchMispred         1059                       # Number of times decode detected a branch misprediction
system.switch_cpus3.decode.decodedInsts     669840752                       # Number of instructions handled by decode
system.switch_cpus3.decode.squashedInsts         2537                       # Number of squashed instructions handled by decode
system.switch_cpus3.dtb.rdAccesses           59187035                       # TLB accesses on read requests
system.switch_cpus3.dtb.wrAccesses           26330814                       # TLB accesses on write requests
system.switch_cpus3.dtb.rdMisses                37757                       # TLB misses on read requests
system.switch_cpus3.dtb.wrMisses                 1735                       # TLB misses on write requests
system.switch_cpus3.dtb.walker.power_state.pwrStateResidencyTicks::UNDEFINED 13815783221499                       # Cumulative time (in ticks) in various power states
system.switch_cpus3.fetch.icacheStallCycles      3003477                       # Number of cycles fetch is stalled on an Icache miss
system.switch_cpus3.fetch.insts             511025321                       # Number of instructions fetch has processed
system.switch_cpus3.fetch.branches           59622022                       # Number of branches that fetch encountered
system.switch_cpus3.fetch.predictedBranches     41205088                       # Number of branches that fetch has predicted taken
system.switch_cpus3.fetch.cycles            284030754                       # Number of cycles fetch has run and was not squashing or blocked
system.switch_cpus3.fetch.squashCycles        6621012                       # Number of cycles fetch has spent squashing
system.switch_cpus3.fetch.miscStallCycles           20                       # Number of cycles fetch has spent waiting on interrupts,or bad addresses, or out of MSHRs
system.switch_cpus3.fetch.pendingTrapStallCycles          133                       # Number of stall cycles due to pending traps
system.switch_cpus3.fetch.cacheLines         68316510                       # Number of cache lines fetched
system.switch_cpus3.fetch.icacheSquashes          204                       # Number of outstanding Icache misses that were squashed
system.switch_cpus3.fetch.nisnDist::samples    290344890                       # Number of instructions fetched each cycle (Total)
system.switch_cpus3.fetch.nisnDist::mean     2.594244                       # Number of instructions fetched each cycle (Total)
system.switch_cpus3.fetch.nisnDist::stdev     3.269378                       # Number of instructions fetched each cycle (Total)
system.switch_cpus3.fetch.nisnDist::underflows            0      0.00%      0.00% # Number of instructions fetched each cycle (Total)
system.switch_cpus3.fetch.nisnDist::0       153231953     52.78%     52.78% # Number of instructions fetched each cycle (Total)
system.switch_cpus3.fetch.nisnDist::1        12467086      4.29%     57.07% # Number of instructions fetched each cycle (Total)
system.switch_cpus3.fetch.nisnDist::2        14894171      5.13%     62.20% # Number of instructions fetched each cycle (Total)
system.switch_cpus3.fetch.nisnDist::3        11159441      3.84%     66.04% # Number of instructions fetched each cycle (Total)
system.switch_cpus3.fetch.nisnDist::4        11813440      4.07%     70.11% # Number of instructions fetched each cycle (Total)
system.switch_cpus3.fetch.nisnDist::5        14223339      4.90%     75.01% # Number of instructions fetched each cycle (Total)
system.switch_cpus3.fetch.nisnDist::6         8354068      2.88%     77.89% # Number of instructions fetched each cycle (Total)
system.switch_cpus3.fetch.nisnDist::7         4614323      1.59%     79.48% # Number of instructions fetched each cycle (Total)
system.switch_cpus3.fetch.nisnDist::8        59587069     20.52%    100.00% # Number of instructions fetched each cycle (Total)
system.switch_cpus3.fetch.nisnDist::overflows            0      0.00%    100.00% # Number of instructions fetched each cycle (Total)
system.switch_cpus3.fetch.nisnDist::min_value            0                       # Number of instructions fetched each cycle (Total)
system.switch_cpus3.fetch.nisnDist::max_value            8                       # Number of instructions fetched each cycle (Total)
system.switch_cpus3.fetch.nisnDist::total    290344890                       # Number of instructions fetched each cycle (Total)
system.switch_cpus3.fetch.branchRate         0.205252                       # Number of branch fetches per cycle
system.switch_cpus3.fetch.rate               1.759230                       # Number of inst fetches per cycle
system.switch_cpus3.itb.rdAccesses                  0                       # TLB accesses on read requests
system.switch_cpus3.itb.wrAccesses           68316540                       # TLB accesses on write requests
system.switch_cpus3.itb.rdMisses                    0                       # TLB misses on read requests
system.switch_cpus3.itb.wrMisses                   50                       # TLB misses on write requests
system.switch_cpus3.itb.walker.power_state.pwrStateResidencyTicks::UNDEFINED 13815783221499                       # Cumulative time (in ticks) in various power states
system.switch_cpus3.lsq0.forwLoads            7065958                       # Number of loads that had data forwarded from stores
system.switch_cpus3.lsq0.squashedLoads       32439627                       # Number of loads squashed
system.switch_cpus3.lsq0.ignoredResponses         6921                       # Number of memory responses ignored because the instruction is squashed
system.switch_cpus3.lsq0.memOrderViolation        19391                       # Number of memory ordering violations
system.switch_cpus3.lsq0.squashedStores      21347274                       # Number of stores squashed
system.switch_cpus3.lsq0.rescheduledLoads            8                       # Number of loads that were rescheduled
system.switch_cpus3.lsq0.blockedByCache          4408                       # Number of times an access to memory failed due to the cache being blocked
system.switch_cpus3.power_state.pwrStateResidencyTicks::OFF  96730625880                       # Cumulative time (in ticks) in various power states
system.switch_cpus3.rename.squashCycles       3309468                       # Number of cycles rename is squashing
system.switch_cpus3.rename.idleCycles        30908568                       # Number of cycles rename is idle
system.switch_cpus3.rename.blockCycles       85552057                       # Number of cycles rename is blocking
system.switch_cpus3.rename.serializeStallCycles            0                       # count of cycles rename stalledfor serializing inst
system.switch_cpus3.rename.runCycles         80040375                       # Number of cycles rename is running
system.switch_cpus3.rename.unblockCycles     90534420                       # Number of cycles rename is unblocking
system.switch_cpus3.rename.renamedInsts     651155064                       # Number of instructions processed by rename
system.switch_cpus3.rename.ROBFullEvents       123477                       # Number of times rename has blocked due to ROB full
system.switch_cpus3.rename.IQFullEvents      40985193                       # Number of times rename has blocked due to IQ full
system.switch_cpus3.rename.LQFullEvents        212154                       # Number of times rename has blocked due to LQ full
system.switch_cpus3.rename.SQFullEvents      44044153                       # Number of times rename has blocked due to SQ full
system.switch_cpus3.rename.renamedOperands    934595188                       # Number of destination operands rename has renamed
system.switch_cpus3.rename.lookups         1670448609                       # Number of register rename lookups that rename has made
system.switch_cpus3.rename.intLookups      1132347965                       # Number of integer rename lookups
system.switch_cpus3.rename.fpLookups          6539391                       # Number of floating rename lookups
system.switch_cpus3.rename.committedMaps    534420157                       # Number of HB maps that are committed
system.switch_cpus3.rename.undoneMaps       400174921                       # Number of HB maps that are undone due to squashing
system.switch_cpus3.rename.serializing              0                       # count of serializing insts renamed
system.switch_cpus3.rename.tempSerializing            0                       # count of temporary serializing insts renamed
system.switch_cpus3.rename.skidInsts        124073147                       # count of insts added to the skid buffer
system.switch_cpus3.rob.reads               852901437                       # The number of ROB reads
system.switch_cpus3.rob.writes             1267920217                       # The number of ROB writes
system.switch_cpus3.thread0.numInsts        250000002                       # Number of Instructions committed
system.switch_cpus3.thread0.numOps          362660600                       # Number of Ops committed
system.switch_cpus3.thread0.numMemRefs              0                       # Number of Memory References
system.voltage_domain.voltage                       1                       # Voltage in Volts

---------- End Simulation Statistics   ----------
