
---------- Begin Simulation Statistics ----------
final_tick                               14978630125917                       # Number of ticks from beginning of simulation (restored from checkpoints and never reset)
host_inst_rate                                 169176                       # Simulator instruction rate (inst/s)
host_mem_usage                               17298984                       # Number of bytes of host memory used
host_op_rate                                   293778                       # Simulator op (including micro ops) rate (op/s)
host_seconds                                  4313.65                       # Real time elapsed on the host
host_tick_rate                                6533676                       # Simulator tick rate (ticks/s)
sim_freq                                 1000000000000                       # Frequency of simulated ticks
sim_insts                                   729768100                       # Number of instructions simulated
sim_ops                                    1267257772                       # Number of ops (including micro ops) simulated
sim_seconds                                  0.028184                       # Number of seconds simulated
sim_ticks                                 28184007114                       # Number of ticks simulated
system.cpu0.Branches                                2                       # Number of branches fetched
system.cpu0.committedInsts                         15                       # Number of instructions committed
system.cpu0.committedOps                           24                       # Number of ops (including micro ops) committed
system.cpu0.idle_fraction                           0                       # Percentage of idle cycles
system.cpu0.l2bus.snoop_filter.hit_multi_requests            0                       # Number of requests hitting in the snoop filter with multiple (>1) holders of the requested data.
system.cpu0.l2bus.snoop_filter.hit_multi_snoops            0                       # Number of snoops hitting in the snoop filter with multiple (>1) holders of the requested data.
system.cpu0.l2bus.snoop_filter.hit_single_requests            2                       # Number of requests hitting in the snoop filter with a single holder of the requested data.
system.cpu0.l2bus.snoop_filter.hit_single_snoops            0                       # Number of snoops hitting in the snoop filter with a single holder of the requested data.
system.cpu0.l2bus.snoop_filter.tot_requests          651                       # Total number of requests made to the snoop filter.
system.cpu0.l2bus.snoop_filter.tot_snoops            0                       # Total number of snoops made to the snoop filter.
system.cpu0.mmucache.mmubus.snoop_filter.hit_multi_requests            0                       # Number of requests hitting in the snoop filter with multiple (>1) holders of the requested data.
system.cpu0.mmucache.mmubus.snoop_filter.hit_multi_snoops            0                       # Number of snoops hitting in the snoop filter with multiple (>1) holders of the requested data.
system.cpu0.mmucache.mmubus.snoop_filter.hit_single_requests            0                       # Number of requests hitting in the snoop filter with a single holder of the requested data.
system.cpu0.mmucache.mmubus.snoop_filter.hit_single_snoops            0                       # Number of snoops hitting in the snoop filter with a single holder of the requested data.
system.cpu0.mmucache.mmubus.snoop_filter.tot_requests            0                       # Total number of requests made to the snoop filter.
system.cpu0.mmucache.mmubus.snoop_filter.tot_snoops            0                       # Total number of snoops made to the snoop filter.
system.cpu0.not_idle_fraction                       1                       # Percentage of non-idle cycles
system.cpu0.numCycles                              30                       # number of cpu cycles simulated
system.cpu0.numWorkItemsCompleted                   0                       # number of work items this cpu completed
system.cpu0.numWorkItemsStarted                     0                       # number of work items this cpu started
system.cpu0.num_busy_cycles                        30                       # Number of busy cycles
system.cpu0.num_cc_register_reads                  12                       # number of times the CC registers were read
system.cpu0.num_cc_register_writes                 10                       # number of times the CC registers were written
system.cpu0.num_conditional_control_insts            2                       # number of instructions that are conditional controls
system.cpu0.num_fp_alu_accesses                     0                       # Number of float alu accesses
system.cpu0.num_fp_insts                            0                       # number of float instructions
system.cpu0.num_fp_register_reads                   0                       # number of times the floating registers were read
system.cpu0.num_fp_register_writes                  0                       # number of times the floating registers were written
system.cpu0.num_func_calls                          0                       # number of times a function call or return occured
system.cpu0.num_idle_cycles                         0                       # Number of idle cycles
system.cpu0.num_int_alu_accesses                   23                       # Number of integer alu accesses
system.cpu0.num_int_insts                          23                       # number of integer instructions
system.cpu0.num_int_register_reads                 50                       # number of times the integer registers were read
system.cpu0.num_int_register_writes                19                       # number of times the integer registers were written
system.cpu0.num_load_insts                          8                       # Number of load instructions
system.cpu0.num_mem_refs                           10                       # number of memory refs
system.cpu0.num_store_insts                         2                       # Number of store instructions
system.cpu0.num_vec_alu_accesses                    0                       # Number of vector alu accesses
system.cpu0.num_vec_insts                           0                       # number of vector instructions
system.cpu0.num_vec_register_reads                  0                       # number of times the vector registers were read
system.cpu0.num_vec_register_writes                 0                       # number of times the vector registers were written
system.cpu0.op_class::No_OpClass                    1      4.17%      4.17% # Class of executed instruction
system.cpu0.op_class::IntAlu                       13     54.17%     58.33% # Class of executed instruction
system.cpu0.op_class::IntMult                       0      0.00%     58.33% # Class of executed instruction
system.cpu0.op_class::IntDiv                        0      0.00%     58.33% # Class of executed instruction
system.cpu0.op_class::FloatAdd                      0      0.00%     58.33% # Class of executed instruction
system.cpu0.op_class::FloatCmp                      0      0.00%     58.33% # Class of executed instruction
system.cpu0.op_class::FloatCvt                      0      0.00%     58.33% # Class of executed instruction
system.cpu0.op_class::FloatMult                     0      0.00%     58.33% # Class of executed instruction
system.cpu0.op_class::FloatMultAcc                  0      0.00%     58.33% # Class of executed instruction
system.cpu0.op_class::FloatDiv                      0      0.00%     58.33% # Class of executed instruction
system.cpu0.op_class::FloatMisc                     0      0.00%     58.33% # Class of executed instruction
system.cpu0.op_class::FloatSqrt                     0      0.00%     58.33% # Class of executed instruction
system.cpu0.op_class::SimdAdd                       0      0.00%     58.33% # Class of executed instruction
system.cpu0.op_class::SimdAddAcc                    0      0.00%     58.33% # Class of executed instruction
system.cpu0.op_class::SimdAlu                       0      0.00%     58.33% # Class of executed instruction
system.cpu0.op_class::SimdCmp                       0      0.00%     58.33% # Class of executed instruction
system.cpu0.op_class::SimdCvt                       0      0.00%     58.33% # Class of executed instruction
system.cpu0.op_class::SimdMisc                      0      0.00%     58.33% # Class of executed instruction
system.cpu0.op_class::SimdMult                      0      0.00%     58.33% # Class of executed instruction
system.cpu0.op_class::SimdMultAcc                   0      0.00%     58.33% # Class of executed instruction
system.cpu0.op_class::SimdShift                     0      0.00%     58.33% # Class of executed instruction
system.cpu0.op_class::SimdShiftAcc                  0      0.00%     58.33% # Class of executed instruction
system.cpu0.op_class::SimdDiv                       0      0.00%     58.33% # Class of executed instruction
system.cpu0.op_class::SimdSqrt                      0      0.00%     58.33% # Class of executed instruction
system.cpu0.op_class::SimdFloatAdd                  0      0.00%     58.33% # Class of executed instruction
system.cpu0.op_class::SimdFloatAlu                  0      0.00%     58.33% # Class of executed instruction
system.cpu0.op_class::SimdFloatCmp                  0      0.00%     58.33% # Class of executed instruction
system.cpu0.op_class::SimdFloatCvt                  0      0.00%     58.33% # Class of executed instruction
system.cpu0.op_class::SimdFloatDiv                  0      0.00%     58.33% # Class of executed instruction
system.cpu0.op_class::SimdFloatMisc                 0      0.00%     58.33% # Class of executed instruction
system.cpu0.op_class::SimdFloatMult                 0      0.00%     58.33% # Class of executed instruction
system.cpu0.op_class::SimdFloatMultAcc              0      0.00%     58.33% # Class of executed instruction
system.cpu0.op_class::SimdFloatSqrt                 0      0.00%     58.33% # Class of executed instruction
system.cpu0.op_class::SimdReduceAdd                 0      0.00%     58.33% # Class of executed instruction
system.cpu0.op_class::SimdReduceAlu                 0      0.00%     58.33% # Class of executed instruction
system.cpu0.op_class::SimdReduceCmp                 0      0.00%     58.33% # Class of executed instruction
system.cpu0.op_class::SimdFloatReduceAdd            0      0.00%     58.33% # Class of executed instruction
system.cpu0.op_class::SimdFloatReduceCmp            0      0.00%     58.33% # Class of executed instruction
system.cpu0.op_class::SimdAes                       0      0.00%     58.33% # Class of executed instruction
system.cpu0.op_class::SimdAesMix                    0      0.00%     58.33% # Class of executed instruction
system.cpu0.op_class::SimdSha1Hash                  0      0.00%     58.33% # Class of executed instruction
system.cpu0.op_class::SimdSha1Hash2                 0      0.00%     58.33% # Class of executed instruction
system.cpu0.op_class::SimdSha256Hash                0      0.00%     58.33% # Class of executed instruction
system.cpu0.op_class::SimdSha256Hash2               0      0.00%     58.33% # Class of executed instruction
system.cpu0.op_class::SimdShaSigma2                 0      0.00%     58.33% # Class of executed instruction
system.cpu0.op_class::SimdShaSigma3                 0      0.00%     58.33% # Class of executed instruction
system.cpu0.op_class::SimdPredAlu                   0      0.00%     58.33% # Class of executed instruction
system.cpu0.op_class::MemRead                       8     33.33%     91.67% # Class of executed instruction
system.cpu0.op_class::MemWrite                      2      8.33%    100.00% # Class of executed instruction
system.cpu0.op_class::FloatMemRead                  0      0.00%    100.00% # Class of executed instruction
system.cpu0.op_class::FloatMemWrite                 0      0.00%    100.00% # Class of executed instruction
system.cpu0.op_class::IprAccess                     0      0.00%    100.00% # Class of executed instruction
system.cpu0.op_class::InstPrefetch                  0      0.00%    100.00% # Class of executed instruction
system.cpu0.op_class::total                        24                       # Class of executed instruction
system.cpu0.workload.numSyscalls                    0                       # Number of system calls
system.cpu1.Branches                                2                       # Number of branches fetched
system.cpu1.committedInsts                         16                       # Number of instructions committed
system.cpu1.committedOps                           22                       # Number of ops (including micro ops) committed
system.cpu1.idle_fraction                           0                       # Percentage of idle cycles
system.cpu1.l2bus.snoop_filter.hit_multi_requests            6                       # Number of requests hitting in the snoop filter with multiple (>1) holders of the requested data.
system.cpu1.l2bus.snoop_filter.hit_multi_snoops            0                       # Number of snoops hitting in the snoop filter with multiple (>1) holders of the requested data.
system.cpu1.l2bus.snoop_filter.hit_single_requests       691108                       # Number of requests hitting in the snoop filter with a single holder of the requested data.
system.cpu1.l2bus.snoop_filter.hit_single_snoops         1130                       # Number of snoops hitting in the snoop filter with a single holder of the requested data.
system.cpu1.l2bus.snoop_filter.tot_requests      1383174                       # Total number of requests made to the snoop filter.
system.cpu1.l2bus.snoop_filter.tot_snoops         1130                       # Total number of snoops made to the snoop filter.
system.cpu1.mmucache.mmubus.snoop_filter.hit_multi_requests            0                       # Number of requests hitting in the snoop filter with multiple (>1) holders of the requested data.
system.cpu1.mmucache.mmubus.snoop_filter.hit_multi_snoops            0                       # Number of snoops hitting in the snoop filter with multiple (>1) holders of the requested data.
system.cpu1.mmucache.mmubus.snoop_filter.hit_single_requests            0                       # Number of requests hitting in the snoop filter with a single holder of the requested data.
system.cpu1.mmucache.mmubus.snoop_filter.hit_single_snoops            0                       # Number of snoops hitting in the snoop filter with a single holder of the requested data.
system.cpu1.mmucache.mmubus.snoop_filter.tot_requests            0                       # Total number of requests made to the snoop filter.
system.cpu1.mmucache.mmubus.snoop_filter.tot_snoops            0                       # Total number of snoops made to the snoop filter.
system.cpu1.not_idle_fraction                       1                       # Percentage of non-idle cycles
system.cpu1.numCycles                              30                       # number of cpu cycles simulated
system.cpu1.numWorkItemsCompleted                   0                       # number of work items this cpu completed
system.cpu1.numWorkItemsStarted                     0                       # number of work items this cpu started
system.cpu1.num_busy_cycles                        30                       # Number of busy cycles
system.cpu1.num_cc_register_reads                  12                       # number of times the CC registers were read
system.cpu1.num_cc_register_writes                  2                       # number of times the CC registers were written
system.cpu1.num_conditional_control_insts            2                       # number of instructions that are conditional controls
system.cpu1.num_fp_alu_accesses                    15                       # Number of float alu accesses
system.cpu1.num_fp_insts                           15                       # number of float instructions
system.cpu1.num_fp_register_reads                  40                       # number of times the floating registers were read
system.cpu1.num_fp_register_writes                 14                       # number of times the floating registers were written
system.cpu1.num_func_calls                          0                       # number of times a function call or return occured
system.cpu1.num_idle_cycles                         0                       # Number of idle cycles
system.cpu1.num_int_alu_accesses                    7                       # Number of integer alu accesses
system.cpu1.num_int_insts                           7                       # number of integer instructions
system.cpu1.num_int_register_reads                 12                       # number of times the integer registers were read
system.cpu1.num_int_register_writes                 4                       # number of times the integer registers were written
system.cpu1.num_load_insts                          0                       # Number of load instructions
system.cpu1.num_mem_refs                            1                       # number of memory refs
system.cpu1.num_store_insts                         1                       # Number of store instructions
system.cpu1.num_vec_alu_accesses                    0                       # Number of vector alu accesses
system.cpu1.num_vec_insts                           0                       # number of vector instructions
system.cpu1.num_vec_register_reads                  0                       # number of times the vector registers were read
system.cpu1.num_vec_register_writes                 0                       # number of times the vector registers were written
system.cpu1.op_class::No_OpClass                    0      0.00%      0.00% # Class of executed instruction
system.cpu1.op_class::IntAlu                       10     45.45%     45.45% # Class of executed instruction
system.cpu1.op_class::IntMult                       0      0.00%     45.45% # Class of executed instruction
system.cpu1.op_class::IntDiv                        0      0.00%     45.45% # Class of executed instruction
system.cpu1.op_class::FloatAdd                      0      0.00%     45.45% # Class of executed instruction
system.cpu1.op_class::FloatCmp                      0      0.00%     45.45% # Class of executed instruction
system.cpu1.op_class::FloatCvt                      0      0.00%     45.45% # Class of executed instruction
system.cpu1.op_class::FloatMult                     0      0.00%     45.45% # Class of executed instruction
system.cpu1.op_class::FloatMultAcc                  0      0.00%     45.45% # Class of executed instruction
system.cpu1.op_class::FloatDiv                      0      0.00%     45.45% # Class of executed instruction
system.cpu1.op_class::FloatMisc                     0      0.00%     45.45% # Class of executed instruction
system.cpu1.op_class::FloatSqrt                     0      0.00%     45.45% # Class of executed instruction
system.cpu1.op_class::SimdAdd                       0      0.00%     45.45% # Class of executed instruction
system.cpu1.op_class::SimdAddAcc                    0      0.00%     45.45% # Class of executed instruction
system.cpu1.op_class::SimdAlu                       0      0.00%     45.45% # Class of executed instruction
system.cpu1.op_class::SimdCmp                       0      0.00%     45.45% # Class of executed instruction
system.cpu1.op_class::SimdCvt                       0      0.00%     45.45% # Class of executed instruction
system.cpu1.op_class::SimdMisc                      0      0.00%     45.45% # Class of executed instruction
system.cpu1.op_class::SimdMult                      0      0.00%     45.45% # Class of executed instruction
system.cpu1.op_class::SimdMultAcc                   0      0.00%     45.45% # Class of executed instruction
system.cpu1.op_class::SimdShift                     0      0.00%     45.45% # Class of executed instruction
system.cpu1.op_class::SimdShiftAcc                  0      0.00%     45.45% # Class of executed instruction
system.cpu1.op_class::SimdDiv                       0      0.00%     45.45% # Class of executed instruction
system.cpu1.op_class::SimdSqrt                      0      0.00%     45.45% # Class of executed instruction
system.cpu1.op_class::SimdFloatAdd                  7     31.82%     77.27% # Class of executed instruction
system.cpu1.op_class::SimdFloatAlu                  0      0.00%     77.27% # Class of executed instruction
system.cpu1.op_class::SimdFloatCmp                  0      0.00%     77.27% # Class of executed instruction
system.cpu1.op_class::SimdFloatCvt                  1      4.55%     81.82% # Class of executed instruction
system.cpu1.op_class::SimdFloatDiv                  0      0.00%     81.82% # Class of executed instruction
system.cpu1.op_class::SimdFloatMisc                 0      0.00%     81.82% # Class of executed instruction
system.cpu1.op_class::SimdFloatMult                 3     13.64%     95.45% # Class of executed instruction
system.cpu1.op_class::SimdFloatMultAcc              0      0.00%     95.45% # Class of executed instruction
system.cpu1.op_class::SimdFloatSqrt                 0      0.00%     95.45% # Class of executed instruction
system.cpu1.op_class::SimdReduceAdd                 0      0.00%     95.45% # Class of executed instruction
system.cpu1.op_class::SimdReduceAlu                 0      0.00%     95.45% # Class of executed instruction
system.cpu1.op_class::SimdReduceCmp                 0      0.00%     95.45% # Class of executed instruction
system.cpu1.op_class::SimdFloatReduceAdd            0      0.00%     95.45% # Class of executed instruction
system.cpu1.op_class::SimdFloatReduceCmp            0      0.00%     95.45% # Class of executed instruction
system.cpu1.op_class::SimdAes                       0      0.00%     95.45% # Class of executed instruction
system.cpu1.op_class::SimdAesMix                    0      0.00%     95.45% # Class of executed instruction
system.cpu1.op_class::SimdSha1Hash                  0      0.00%     95.45% # Class of executed instruction
system.cpu1.op_class::SimdSha1Hash2                 0      0.00%     95.45% # Class of executed instruction
system.cpu1.op_class::SimdSha256Hash                0      0.00%     95.45% # Class of executed instruction
system.cpu1.op_class::SimdSha256Hash2               0      0.00%     95.45% # Class of executed instruction
system.cpu1.op_class::SimdShaSigma2                 0      0.00%     95.45% # Class of executed instruction
system.cpu1.op_class::SimdShaSigma3                 0      0.00%     95.45% # Class of executed instruction
system.cpu1.op_class::SimdPredAlu                   0      0.00%     95.45% # Class of executed instruction
system.cpu1.op_class::MemRead                       0      0.00%     95.45% # Class of executed instruction
system.cpu1.op_class::MemWrite                      1      4.55%    100.00% # Class of executed instruction
system.cpu1.op_class::FloatMemRead                  0      0.00%    100.00% # Class of executed instruction
system.cpu1.op_class::FloatMemWrite                 0      0.00%    100.00% # Class of executed instruction
system.cpu1.op_class::IprAccess                     0      0.00%    100.00% # Class of executed instruction
system.cpu1.op_class::InstPrefetch                  0      0.00%    100.00% # Class of executed instruction
system.cpu1.op_class::total                        22                       # Class of executed instruction
system.cpu1.workload.numSyscalls                    0                       # Number of system calls
system.cpu2.Branches                                2                       # Number of branches fetched
system.cpu2.committedInsts                         14                       # Number of instructions committed
system.cpu2.committedOps                           25                       # Number of ops (including micro ops) committed
system.cpu2.idle_fraction                           0                       # Percentage of idle cycles
system.cpu2.l2bus.snoop_filter.hit_multi_requests            3                       # Number of requests hitting in the snoop filter with multiple (>1) holders of the requested data.
system.cpu2.l2bus.snoop_filter.hit_multi_snoops            0                       # Number of snoops hitting in the snoop filter with multiple (>1) holders of the requested data.
system.cpu2.l2bus.snoop_filter.hit_single_requests      2529373                       # Number of requests hitting in the snoop filter with a single holder of the requested data.
system.cpu2.l2bus.snoop_filter.hit_single_snoops          208                       # Number of snoops hitting in the snoop filter with a single holder of the requested data.
system.cpu2.l2bus.snoop_filter.tot_requests      5059437                       # Total number of requests made to the snoop filter.
system.cpu2.l2bus.snoop_filter.tot_snoops          208                       # Total number of snoops made to the snoop filter.
system.cpu2.mmucache.mmubus.snoop_filter.hit_multi_requests            0                       # Number of requests hitting in the snoop filter with multiple (>1) holders of the requested data.
system.cpu2.mmucache.mmubus.snoop_filter.hit_multi_snoops            0                       # Number of snoops hitting in the snoop filter with multiple (>1) holders of the requested data.
system.cpu2.mmucache.mmubus.snoop_filter.hit_single_requests            0                       # Number of requests hitting in the snoop filter with a single holder of the requested data.
system.cpu2.mmucache.mmubus.snoop_filter.hit_single_snoops            0                       # Number of snoops hitting in the snoop filter with a single holder of the requested data.
system.cpu2.mmucache.mmubus.snoop_filter.tot_requests            0                       # Total number of requests made to the snoop filter.
system.cpu2.mmucache.mmubus.snoop_filter.tot_snoops            0                       # Total number of snoops made to the snoop filter.
system.cpu2.not_idle_fraction                       1                       # Percentage of non-idle cycles
system.cpu2.numCycles                              30                       # number of cpu cycles simulated
system.cpu2.numWorkItemsCompleted                   0                       # number of work items this cpu completed
system.cpu2.numWorkItemsStarted                     0                       # number of work items this cpu started
system.cpu2.num_busy_cycles                        30                       # Number of busy cycles
system.cpu2.num_cc_register_reads                  12                       # number of times the CC registers were read
system.cpu2.num_cc_register_writes                 10                       # number of times the CC registers were written
system.cpu2.num_conditional_control_insts            2                       # number of instructions that are conditional controls
system.cpu2.num_fp_alu_accesses                     8                       # Number of float alu accesses
system.cpu2.num_fp_insts                            8                       # number of float instructions
system.cpu2.num_fp_register_reads                  14                       # number of times the floating registers were read
system.cpu2.num_fp_register_writes                  7                       # number of times the floating registers were written
system.cpu2.num_func_calls                          0                       # number of times a function call or return occured
system.cpu2.num_idle_cycles                         0                       # Number of idle cycles
system.cpu2.num_int_alu_accesses                   20                       # Number of integer alu accesses
system.cpu2.num_int_insts                          20                       # number of integer instructions
system.cpu2.num_int_register_reads                 31                       # number of times the integer registers were read
system.cpu2.num_int_register_writes                15                       # number of times the integer registers were written
system.cpu2.num_load_insts                          3                       # Number of load instructions
system.cpu2.num_mem_refs                            3                       # number of memory refs
system.cpu2.num_store_insts                         0                       # Number of store instructions
system.cpu2.num_vec_alu_accesses                    0                       # Number of vector alu accesses
system.cpu2.num_vec_insts                           0                       # number of vector instructions
system.cpu2.num_vec_register_reads                  0                       # number of times the vector registers were read
system.cpu2.num_vec_register_writes                 0                       # number of times the vector registers were written
system.cpu2.op_class::No_OpClass                    0      0.00%      0.00% # Class of executed instruction
system.cpu2.op_class::IntAlu                       15     60.00%     60.00% # Class of executed instruction
system.cpu2.op_class::IntMult                       0      0.00%     60.00% # Class of executed instruction
system.cpu2.op_class::IntDiv                        0      0.00%     60.00% # Class of executed instruction
system.cpu2.op_class::FloatAdd                      0      0.00%     60.00% # Class of executed instruction
system.cpu2.op_class::FloatCmp                      0      0.00%     60.00% # Class of executed instruction
system.cpu2.op_class::FloatCvt                      0      0.00%     60.00% # Class of executed instruction
system.cpu2.op_class::FloatMult                     0      0.00%     60.00% # Class of executed instruction
system.cpu2.op_class::FloatMultAcc                  0      0.00%     60.00% # Class of executed instruction
system.cpu2.op_class::FloatDiv                      0      0.00%     60.00% # Class of executed instruction
system.cpu2.op_class::FloatMisc                     0      0.00%     60.00% # Class of executed instruction
system.cpu2.op_class::FloatSqrt                     0      0.00%     60.00% # Class of executed instruction
system.cpu2.op_class::SimdAdd                       0      0.00%     60.00% # Class of executed instruction
system.cpu2.op_class::SimdAddAcc                    0      0.00%     60.00% # Class of executed instruction
system.cpu2.op_class::SimdAlu                       0      0.00%     60.00% # Class of executed instruction
system.cpu2.op_class::SimdCmp                       0      0.00%     60.00% # Class of executed instruction
system.cpu2.op_class::SimdCvt                       0      0.00%     60.00% # Class of executed instruction
system.cpu2.op_class::SimdMisc                      2      8.00%     68.00% # Class of executed instruction
system.cpu2.op_class::SimdMult                      0      0.00%     68.00% # Class of executed instruction
system.cpu2.op_class::SimdMultAcc                   0      0.00%     68.00% # Class of executed instruction
system.cpu2.op_class::SimdShift                     0      0.00%     68.00% # Class of executed instruction
system.cpu2.op_class::SimdShiftAcc                  0      0.00%     68.00% # Class of executed instruction
system.cpu2.op_class::SimdDiv                       0      0.00%     68.00% # Class of executed instruction
system.cpu2.op_class::SimdSqrt                      0      0.00%     68.00% # Class of executed instruction
system.cpu2.op_class::SimdFloatAdd                  1      4.00%     72.00% # Class of executed instruction
system.cpu2.op_class::SimdFloatAlu                  0      0.00%     72.00% # Class of executed instruction
system.cpu2.op_class::SimdFloatCmp                  0      0.00%     72.00% # Class of executed instruction
system.cpu2.op_class::SimdFloatCvt                  3     12.00%     84.00% # Class of executed instruction
system.cpu2.op_class::SimdFloatDiv                  0      0.00%     84.00% # Class of executed instruction
system.cpu2.op_class::SimdFloatMisc                 0      0.00%     84.00% # Class of executed instruction
system.cpu2.op_class::SimdFloatMult                 1      4.00%     88.00% # Class of executed instruction
system.cpu2.op_class::SimdFloatMultAcc              0      0.00%     88.00% # Class of executed instruction
system.cpu2.op_class::SimdFloatSqrt                 0      0.00%     88.00% # Class of executed instruction
system.cpu2.op_class::SimdReduceAdd                 0      0.00%     88.00% # Class of executed instruction
system.cpu2.op_class::SimdReduceAlu                 0      0.00%     88.00% # Class of executed instruction
system.cpu2.op_class::SimdReduceCmp                 0      0.00%     88.00% # Class of executed instruction
system.cpu2.op_class::SimdFloatReduceAdd            0      0.00%     88.00% # Class of executed instruction
system.cpu2.op_class::SimdFloatReduceCmp            0      0.00%     88.00% # Class of executed instruction
system.cpu2.op_class::SimdAes                       0      0.00%     88.00% # Class of executed instruction
system.cpu2.op_class::SimdAesMix                    0      0.00%     88.00% # Class of executed instruction
system.cpu2.op_class::SimdSha1Hash                  0      0.00%     88.00% # Class of executed instruction
system.cpu2.op_class::SimdSha1Hash2                 0      0.00%     88.00% # Class of executed instruction
system.cpu2.op_class::SimdSha256Hash                0      0.00%     88.00% # Class of executed instruction
system.cpu2.op_class::SimdSha256Hash2               0      0.00%     88.00% # Class of executed instruction
system.cpu2.op_class::SimdShaSigma2                 0      0.00%     88.00% # Class of executed instruction
system.cpu2.op_class::SimdShaSigma3                 0      0.00%     88.00% # Class of executed instruction
system.cpu2.op_class::SimdPredAlu                   0      0.00%     88.00% # Class of executed instruction
system.cpu2.op_class::MemRead                       2      8.00%     96.00% # Class of executed instruction
system.cpu2.op_class::MemWrite                      0      0.00%     96.00% # Class of executed instruction
system.cpu2.op_class::FloatMemRead                  1      4.00%    100.00% # Class of executed instruction
system.cpu2.op_class::FloatMemWrite                 0      0.00%    100.00% # Class of executed instruction
system.cpu2.op_class::IprAccess                     0      0.00%    100.00% # Class of executed instruction
system.cpu2.op_class::InstPrefetch                  0      0.00%    100.00% # Class of executed instruction
system.cpu2.op_class::total                        25                       # Class of executed instruction
system.cpu2.workload.numSyscalls                    0                       # Number of system calls
system.cpu3.Branches                                1                       # Number of branches fetched
system.cpu3.committedInsts                         11                       # Number of instructions committed
system.cpu3.committedOps                           23                       # Number of ops (including micro ops) committed
system.cpu3.idle_fraction                           0                       # Percentage of idle cycles
system.cpu3.l2bus.snoop_filter.hit_multi_requests           47                       # Number of requests hitting in the snoop filter with multiple (>1) holders of the requested data.
system.cpu3.l2bus.snoop_filter.hit_multi_snoops            0                       # Number of snoops hitting in the snoop filter with multiple (>1) holders of the requested data.
system.cpu3.l2bus.snoop_filter.hit_single_requests        84882                       # Number of requests hitting in the snoop filter with a single holder of the requested data.
system.cpu3.l2bus.snoop_filter.hit_single_snoops          353                       # Number of snoops hitting in the snoop filter with a single holder of the requested data.
system.cpu3.l2bus.snoop_filter.tot_requests       170559                       # Total number of requests made to the snoop filter.
system.cpu3.l2bus.snoop_filter.tot_snoops          353                       # Total number of snoops made to the snoop filter.
system.cpu3.mmucache.mmubus.snoop_filter.hit_multi_requests            0                       # Number of requests hitting in the snoop filter with multiple (>1) holders of the requested data.
system.cpu3.mmucache.mmubus.snoop_filter.hit_multi_snoops            0                       # Number of snoops hitting in the snoop filter with multiple (>1) holders of the requested data.
system.cpu3.mmucache.mmubus.snoop_filter.hit_single_requests            0                       # Number of requests hitting in the snoop filter with a single holder of the requested data.
system.cpu3.mmucache.mmubus.snoop_filter.hit_single_snoops            0                       # Number of snoops hitting in the snoop filter with a single holder of the requested data.
system.cpu3.mmucache.mmubus.snoop_filter.tot_requests            0                       # Total number of requests made to the snoop filter.
system.cpu3.mmucache.mmubus.snoop_filter.tot_snoops            0                       # Total number of snoops made to the snoop filter.
system.cpu3.not_idle_fraction                       1                       # Percentage of non-idle cycles
system.cpu3.numCycles                              30                       # number of cpu cycles simulated
system.cpu3.numWorkItemsCompleted                   0                       # number of work items this cpu completed
system.cpu3.numWorkItemsStarted                     0                       # number of work items this cpu started
system.cpu3.num_busy_cycles                        30                       # Number of busy cycles
system.cpu3.num_cc_register_reads                   5                       # number of times the CC registers were read
system.cpu3.num_cc_register_writes                  4                       # number of times the CC registers were written
system.cpu3.num_conditional_control_insts            1                       # number of instructions that are conditional controls
system.cpu3.num_fp_alu_accesses                    12                       # Number of float alu accesses
system.cpu3.num_fp_insts                           12                       # number of float instructions
system.cpu3.num_fp_register_reads                   4                       # number of times the floating registers were read
system.cpu3.num_fp_register_writes                  8                       # number of times the floating registers were written
system.cpu3.num_func_calls                          0                       # number of times a function call or return occured
system.cpu3.num_idle_cycles                         0                       # Number of idle cycles
system.cpu3.num_int_alu_accesses                   23                       # Number of integer alu accesses
system.cpu3.num_int_insts                          23                       # number of integer instructions
system.cpu3.num_int_register_reads                 58                       # number of times the integer registers were read
system.cpu3.num_int_register_writes                 8                       # number of times the integer registers were written
system.cpu3.num_load_insts                         10                       # Number of load instructions
system.cpu3.num_mem_refs                           16                       # number of memory refs
system.cpu3.num_store_insts                         6                       # Number of store instructions
system.cpu3.num_vec_alu_accesses                    0                       # Number of vector alu accesses
system.cpu3.num_vec_insts                           0                       # number of vector instructions
system.cpu3.num_vec_register_reads                  0                       # number of times the vector registers were read
system.cpu3.num_vec_register_writes                 0                       # number of times the vector registers were written
system.cpu3.op_class::No_OpClass                    2      8.00%      8.00% # Class of executed instruction
system.cpu3.op_class::IntAlu                        7     28.00%     36.00% # Class of executed instruction
system.cpu3.op_class::IntMult                       0      0.00%     36.00% # Class of executed instruction
system.cpu3.op_class::IntDiv                        0      0.00%     36.00% # Class of executed instruction
system.cpu3.op_class::FloatAdd                      0      0.00%     36.00% # Class of executed instruction
system.cpu3.op_class::FloatCmp                      0      0.00%     36.00% # Class of executed instruction
system.cpu3.op_class::FloatCvt                      0      0.00%     36.00% # Class of executed instruction
system.cpu3.op_class::FloatMult                     0      0.00%     36.00% # Class of executed instruction
system.cpu3.op_class::FloatMultAcc                  0      0.00%     36.00% # Class of executed instruction
system.cpu3.op_class::FloatDiv                      0      0.00%     36.00% # Class of executed instruction
system.cpu3.op_class::FloatMisc                     0      0.00%     36.00% # Class of executed instruction
system.cpu3.op_class::FloatSqrt                     0      0.00%     36.00% # Class of executed instruction
system.cpu3.op_class::SimdAdd                       0      0.00%     36.00% # Class of executed instruction
system.cpu3.op_class::SimdAddAcc                    0      0.00%     36.00% # Class of executed instruction
system.cpu3.op_class::SimdAlu                       0      0.00%     36.00% # Class of executed instruction
system.cpu3.op_class::SimdCmp                       0      0.00%     36.00% # Class of executed instruction
system.cpu3.op_class::SimdCvt                       0      0.00%     36.00% # Class of executed instruction
system.cpu3.op_class::SimdMisc                      0      0.00%     36.00% # Class of executed instruction
system.cpu3.op_class::SimdMult                      0      0.00%     36.00% # Class of executed instruction
system.cpu3.op_class::SimdMultAcc                   0      0.00%     36.00% # Class of executed instruction
system.cpu3.op_class::SimdShift                     0      0.00%     36.00% # Class of executed instruction
system.cpu3.op_class::SimdShiftAcc                  0      0.00%     36.00% # Class of executed instruction
system.cpu3.op_class::SimdDiv                       0      0.00%     36.00% # Class of executed instruction
system.cpu3.op_class::SimdSqrt                      0      0.00%     36.00% # Class of executed instruction
system.cpu3.op_class::SimdFloatAdd                  0      0.00%     36.00% # Class of executed instruction
system.cpu3.op_class::SimdFloatAlu                  0      0.00%     36.00% # Class of executed instruction
system.cpu3.op_class::SimdFloatCmp                  0      0.00%     36.00% # Class of executed instruction
system.cpu3.op_class::SimdFloatCvt                  0      0.00%     36.00% # Class of executed instruction
system.cpu3.op_class::SimdFloatDiv                  0      0.00%     36.00% # Class of executed instruction
system.cpu3.op_class::SimdFloatMisc                 0      0.00%     36.00% # Class of executed instruction
system.cpu3.op_class::SimdFloatMult                 0      0.00%     36.00% # Class of executed instruction
system.cpu3.op_class::SimdFloatMultAcc              0      0.00%     36.00% # Class of executed instruction
system.cpu3.op_class::SimdFloatSqrt                 0      0.00%     36.00% # Class of executed instruction
system.cpu3.op_class::SimdReduceAdd                 0      0.00%     36.00% # Class of executed instruction
system.cpu3.op_class::SimdReduceAlu                 0      0.00%     36.00% # Class of executed instruction
system.cpu3.op_class::SimdReduceCmp                 0      0.00%     36.00% # Class of executed instruction
system.cpu3.op_class::SimdFloatReduceAdd            0      0.00%     36.00% # Class of executed instruction
system.cpu3.op_class::SimdFloatReduceCmp            0      0.00%     36.00% # Class of executed instruction
system.cpu3.op_class::SimdAes                       0      0.00%     36.00% # Class of executed instruction
system.cpu3.op_class::SimdAesMix                    0      0.00%     36.00% # Class of executed instruction
system.cpu3.op_class::SimdSha1Hash                  0      0.00%     36.00% # Class of executed instruction
system.cpu3.op_class::SimdSha1Hash2                 0      0.00%     36.00% # Class of executed instruction
system.cpu3.op_class::SimdSha256Hash                0      0.00%     36.00% # Class of executed instruction
system.cpu3.op_class::SimdSha256Hash2               0      0.00%     36.00% # Class of executed instruction
system.cpu3.op_class::SimdShaSigma2                 0      0.00%     36.00% # Class of executed instruction
system.cpu3.op_class::SimdShaSigma3                 0      0.00%     36.00% # Class of executed instruction
system.cpu3.op_class::SimdPredAlu                   0      0.00%     36.00% # Class of executed instruction
system.cpu3.op_class::MemRead                       2      8.00%     44.00% # Class of executed instruction
system.cpu3.op_class::MemWrite                      2      8.00%     52.00% # Class of executed instruction
system.cpu3.op_class::FloatMemRead                  8     32.00%     84.00% # Class of executed instruction
system.cpu3.op_class::FloatMemWrite                 4     16.00%    100.00% # Class of executed instruction
system.cpu3.op_class::IprAccess                     0      0.00%    100.00% # Class of executed instruction
system.cpu3.op_class::InstPrefetch                  0      0.00%    100.00% # Class of executed instruction
system.cpu3.op_class::total                        25                       # Class of executed instruction
system.cpu3.workload.numSyscalls                    0                       # Number of system calls
system.l3bus.snoop_filter.hit_multi_requests            0                       # Number of requests hitting in the snoop filter with multiple (>1) holders of the requested data.
system.l3bus.snoop_filter.hit_multi_snoops            0                       # Number of snoops hitting in the snoop filter with multiple (>1) holders of the requested data.
system.l3bus.snoop_filter.hit_single_requests       200102                       # Number of requests hitting in the snoop filter with a single holder of the requested data.
system.l3bus.snoop_filter.hit_single_snoops            0                       # Number of snoops hitting in the snoop filter with a single holder of the requested data.
system.l3bus.snoop_filter.tot_requests         414159                       # Total number of requests made to the snoop filter.
system.l3bus.snoop_filter.tot_snoops                0                       # Total number of snoops made to the snoop filter.
system.membus.snoop_filter.hit_multi_requests            0                       # Number of requests hitting in the snoop filter with multiple (>1) holders of the requested data.
system.membus.snoop_filter.hit_multi_snoops            0                       # Number of snoops hitting in the snoop filter with multiple (>1) holders of the requested data.
system.membus.snoop_filter.hit_single_requests        96849                       # Number of requests hitting in the snoop filter with a single holder of the requested data.
system.membus.snoop_filter.hit_single_snoops            0                       # Number of snoops hitting in the snoop filter with a single holder of the requested data.
system.membus.snoop_filter.tot_requests        272911                       # Total number of requests made to the snoop filter.
system.membus.snoop_filter.tot_snoops               0                       # Total number of snoops made to the snoop filter.
system.switch_cpus0.cc_regfile_reads        146489225                       # number of cc regfile reads
system.switch_cpus0.cc_regfile_writes       151848402                       # number of cc regfile writes
system.switch_cpus0.committedInsts          157349786                       # Number of Instructions Simulated
system.switch_cpus0.committedOps            309354767                       # Number of Ops (including micro ops) Simulated
system.switch_cpus0.cpi                      0.537888                       # CPI: Cycles Per Instruction
system.switch_cpus0.cpi_total                0.537888                       # CPI: Total CPI of All Threads
system.switch_cpus0.fp_regfile_reads                1                       # number of floating regfile reads
system.switch_cpus0.fp_regfile_writes              63                       # number of floating regfile writes
system.switch_cpus0.idleCycles                  80041                       # Total number of cycles that the CPU has spent unscheduled due to idling
system.switch_cpus0.iew.branchMispredicts      1606328                       # Number of branch mispredicts detected at execute
system.switch_cpus0.iew.exec_branches        28955077                       # Number of branches executed
system.switch_cpus0.iew.exec_nop                    0                       # number of nop insts executed
system.switch_cpus0.iew.exec_rate            4.295498                       # Inst execution rate
system.switch_cpus0.iew.exec_refs           107523424                       # number of memory reference insts executed
system.switch_cpus0.iew.exec_stores          29101068                       # Number of stores executed
system.switch_cpus0.iew.exec_swp                    0                       # number of swp insts executed
system.switch_cpus0.iew.iewBlockCycles        9808879                       # Number of cycles IEW is blocking
system.switch_cpus0.iew.iewDispLoadInsts     84738363                       # Number of dispatched load instructions
system.switch_cpus0.iew.iewDispNonSpecInsts            0                       # Number of dispatched non-speculative instructions
system.switch_cpus0.iew.iewDispSquashedInsts         8366                       # Number of squashed instructions skipped by dispatch
system.switch_cpus0.iew.iewDispStoreInsts     33452243                       # Number of dispatched store instructions
system.switch_cpus0.iew.iewDispatchedInsts    392622084                       # Number of instructions dispatched to IQ
system.switch_cpus0.iew.iewExecLoadInsts     78422356                       # Number of load instructions executed
system.switch_cpus0.iew.iewExecSquashedInsts      4569498                       # Number of squashed instructions skipped in execute
system.switch_cpus0.iew.iewExecutedInsts    363556051                       # Number of executed instructions
system.switch_cpus0.iew.iewIQFullEvents            35                       # Number of times the IQ has become full, causing a stall
system.switch_cpus0.iew.iewIdleCycles               0                       # Number of cycles IEW is idle
system.switch_cpus0.iew.iewLSQFullEvents         1096                       # Number of times the LSQ has become full, causing a stall
system.switch_cpus0.iew.iewSquashCycles       1326352                       # Number of cycles IEW is squashing
system.switch_cpus0.iew.iewUnblockCycles         1139                       # Number of cycles IEW is unblocking
system.switch_cpus0.iew.memOrderViolationEvents        22660                       # Number of memory order violations
system.switch_cpus0.iew.predictedNotTakenIncorrect       773151                       # Number of branches that were predicted not taken incorrectly
system.switch_cpus0.iew.predictedTakenIncorrect       833177                       # Number of branches that were predicted taken incorrectly
system.switch_cpus0.iew.wb_consumers        406672187                       # num instructions consuming a value
system.switch_cpus0.iew.wb_count            361402010                       # cumulative count of insts written-back
system.switch_cpus0.iew.wb_fanout            0.670891                       # average fanout of values written-back
system.switch_cpus0.iew.wb_producers        272832646                       # num instructions producing a value
system.switch_cpus0.iew.wb_rate              4.270048                       # insts written-back per cycle
system.switch_cpus0.iew.wb_sent             362842606                       # cumulative count of insts sent to commit
system.switch_cpus0.int_regfile_reads       525786323                       # number of integer regfile reads
system.switch_cpus0.int_regfile_writes      304791053                       # number of integer regfile writes
system.switch_cpus0.ipc                      1.859124                       # IPC: Instructions Per Cycle
system.switch_cpus0.ipc_total                1.859124                       # IPC: Total IPC of All Threads
system.switch_cpus0.iq.FU_type_0::No_OpClass       788763      0.21%      0.21% # Type of FU issued
system.switch_cpus0.iq.FU_type_0::IntAlu    255475138     69.40%     69.61% # Type of FU issued
system.switch_cpus0.iq.FU_type_0::IntMult      2145667      0.58%     70.20% # Type of FU issued
system.switch_cpus0.iq.FU_type_0::IntDiv            0      0.00%     70.20% # Type of FU issued
system.switch_cpus0.iq.FU_type_0::FloatAdd            0      0.00%     70.20% # Type of FU issued
system.switch_cpus0.iq.FU_type_0::FloatCmp            0      0.00%     70.20% # Type of FU issued
system.switch_cpus0.iq.FU_type_0::FloatCvt            0      0.00%     70.20% # Type of FU issued
system.switch_cpus0.iq.FU_type_0::FloatMult            0      0.00%     70.20% # Type of FU issued
system.switch_cpus0.iq.FU_type_0::FloatMultAcc            0      0.00%     70.20% # Type of FU issued
system.switch_cpus0.iq.FU_type_0::FloatDiv            0      0.00%     70.20% # Type of FU issued
system.switch_cpus0.iq.FU_type_0::FloatMisc            0      0.00%     70.20% # Type of FU issued
system.switch_cpus0.iq.FU_type_0::FloatSqrt            0      0.00%     70.20% # Type of FU issued
system.switch_cpus0.iq.FU_type_0::SimdAdd            0      0.00%     70.20% # Type of FU issued
system.switch_cpus0.iq.FU_type_0::SimdAddAcc            0      0.00%     70.20% # Type of FU issued
system.switch_cpus0.iq.FU_type_0::SimdAlu            0      0.00%     70.20% # Type of FU issued
system.switch_cpus0.iq.FU_type_0::SimdCmp            0      0.00%     70.20% # Type of FU issued
system.switch_cpus0.iq.FU_type_0::SimdCvt            0      0.00%     70.20% # Type of FU issued
system.switch_cpus0.iq.FU_type_0::SimdMisc            0      0.00%     70.20% # Type of FU issued
system.switch_cpus0.iq.FU_type_0::SimdMult            0      0.00%     70.20% # Type of FU issued
system.switch_cpus0.iq.FU_type_0::SimdMultAcc            0      0.00%     70.20% # Type of FU issued
system.switch_cpus0.iq.FU_type_0::SimdShift            0      0.00%     70.20% # Type of FU issued
system.switch_cpus0.iq.FU_type_0::SimdShiftAcc            0      0.00%     70.20% # Type of FU issued
system.switch_cpus0.iq.FU_type_0::SimdDiv            0      0.00%     70.20% # Type of FU issued
system.switch_cpus0.iq.FU_type_0::SimdSqrt            0      0.00%     70.20% # Type of FU issued
system.switch_cpus0.iq.FU_type_0::SimdFloatAdd            0      0.00%     70.20% # Type of FU issued
system.switch_cpus0.iq.FU_type_0::SimdFloatAlu            0      0.00%     70.20% # Type of FU issued
system.switch_cpus0.iq.FU_type_0::SimdFloatCmp            0      0.00%     70.20% # Type of FU issued
system.switch_cpus0.iq.FU_type_0::SimdFloatCvt            0      0.00%     70.20% # Type of FU issued
system.switch_cpus0.iq.FU_type_0::SimdFloatDiv            0      0.00%     70.20% # Type of FU issued
system.switch_cpus0.iq.FU_type_0::SimdFloatMisc            0      0.00%     70.20% # Type of FU issued
system.switch_cpus0.iq.FU_type_0::SimdFloatMult            0      0.00%     70.20% # Type of FU issued
system.switch_cpus0.iq.FU_type_0::SimdFloatMultAcc            0      0.00%     70.20% # Type of FU issued
system.switch_cpus0.iq.FU_type_0::SimdFloatSqrt            0      0.00%     70.20% # Type of FU issued
system.switch_cpus0.iq.FU_type_0::SimdReduceAdd            0      0.00%     70.20% # Type of FU issued
system.switch_cpus0.iq.FU_type_0::SimdReduceAlu            0      0.00%     70.20% # Type of FU issued
system.switch_cpus0.iq.FU_type_0::SimdReduceCmp            0      0.00%     70.20% # Type of FU issued
system.switch_cpus0.iq.FU_type_0::SimdFloatReduceAdd            0      0.00%     70.20% # Type of FU issued
system.switch_cpus0.iq.FU_type_0::SimdFloatReduceCmp            0      0.00%     70.20% # Type of FU issued
system.switch_cpus0.iq.FU_type_0::SimdAes            0      0.00%     70.20% # Type of FU issued
system.switch_cpus0.iq.FU_type_0::SimdAesMix            0      0.00%     70.20% # Type of FU issued
system.switch_cpus0.iq.FU_type_0::SimdSha1Hash            0      0.00%     70.20% # Type of FU issued
system.switch_cpus0.iq.FU_type_0::SimdSha1Hash2            0      0.00%     70.20% # Type of FU issued
system.switch_cpus0.iq.FU_type_0::SimdSha256Hash            0      0.00%     70.20% # Type of FU issued
system.switch_cpus0.iq.FU_type_0::SimdSha256Hash2            0      0.00%     70.20% # Type of FU issued
system.switch_cpus0.iq.FU_type_0::SimdShaSigma2            0      0.00%     70.20% # Type of FU issued
system.switch_cpus0.iq.FU_type_0::SimdShaSigma3            0      0.00%     70.20% # Type of FU issued
system.switch_cpus0.iq.FU_type_0::SimdPredAlu            0      0.00%     70.20% # Type of FU issued
system.switch_cpus0.iq.FU_type_0::MemRead     80085334     21.75%     91.95% # Type of FU issued
system.switch_cpus0.iq.FU_type_0::MemWrite     29630636      8.05%    100.00% # Type of FU issued
system.switch_cpus0.iq.FU_type_0::FloatMemRead            8      0.00%    100.00% # Type of FU issued
system.switch_cpus0.iq.FU_type_0::FloatMemWrite            3      0.00%    100.00% # Type of FU issued
system.switch_cpus0.iq.FU_type_0::IprAccess            0      0.00%    100.00% # Type of FU issued
system.switch_cpus0.iq.FU_type_0::InstPrefetch            0      0.00%    100.00% # Type of FU issued
system.switch_cpus0.iq.FU_type_0::total     368125549                       # Type of FU issued
system.switch_cpus0.iq.fp_alu_accesses             11                       # Number of floating point alu accesses
system.switch_cpus0.iq.fp_inst_queue_reads           22                       # Number of floating instruction queue reads
system.switch_cpus0.iq.fp_inst_queue_wakeup_accesses            8                       # Number of floating instruction queue wakeup accesses
system.switch_cpus0.iq.fp_inst_queue_writes           24                       # Number of floating instruction queue writes
system.switch_cpus0.iq.fu_busy_cnt           11189254                       # FU busy when requested
system.switch_cpus0.iq.fu_busy_rate          0.030395                       # FU busy rate (busy events/executed inst)
system.switch_cpus0.iq.fu_full::No_OpClass            0      0.00%      0.00% # attempts to use FU when none available
system.switch_cpus0.iq.fu_full::IntAlu        7050503     63.01%     63.01% # attempts to use FU when none available
system.switch_cpus0.iq.fu_full::IntMult             0      0.00%     63.01% # attempts to use FU when none available
system.switch_cpus0.iq.fu_full::IntDiv              0      0.00%     63.01% # attempts to use FU when none available
system.switch_cpus0.iq.fu_full::FloatAdd            0      0.00%     63.01% # attempts to use FU when none available
system.switch_cpus0.iq.fu_full::FloatCmp            0      0.00%     63.01% # attempts to use FU when none available
system.switch_cpus0.iq.fu_full::FloatCvt            0      0.00%     63.01% # attempts to use FU when none available
system.switch_cpus0.iq.fu_full::FloatMult            0      0.00%     63.01% # attempts to use FU when none available
system.switch_cpus0.iq.fu_full::FloatMultAcc            0      0.00%     63.01% # attempts to use FU when none available
system.switch_cpus0.iq.fu_full::FloatDiv            0      0.00%     63.01% # attempts to use FU when none available
system.switch_cpus0.iq.fu_full::FloatMisc            0      0.00%     63.01% # attempts to use FU when none available
system.switch_cpus0.iq.fu_full::FloatSqrt            0      0.00%     63.01% # attempts to use FU when none available
system.switch_cpus0.iq.fu_full::SimdAdd             0      0.00%     63.01% # attempts to use FU when none available
system.switch_cpus0.iq.fu_full::SimdAddAcc            0      0.00%     63.01% # attempts to use FU when none available
system.switch_cpus0.iq.fu_full::SimdAlu             0      0.00%     63.01% # attempts to use FU when none available
system.switch_cpus0.iq.fu_full::SimdCmp             0      0.00%     63.01% # attempts to use FU when none available
system.switch_cpus0.iq.fu_full::SimdCvt             0      0.00%     63.01% # attempts to use FU when none available
system.switch_cpus0.iq.fu_full::SimdMisc            0      0.00%     63.01% # attempts to use FU when none available
system.switch_cpus0.iq.fu_full::SimdMult            0      0.00%     63.01% # attempts to use FU when none available
system.switch_cpus0.iq.fu_full::SimdMultAcc            0      0.00%     63.01% # attempts to use FU when none available
system.switch_cpus0.iq.fu_full::SimdShift            0      0.00%     63.01% # attempts to use FU when none available
system.switch_cpus0.iq.fu_full::SimdShiftAcc            0      0.00%     63.01% # attempts to use FU when none available
system.switch_cpus0.iq.fu_full::SimdDiv             0      0.00%     63.01% # attempts to use FU when none available
system.switch_cpus0.iq.fu_full::SimdSqrt            0      0.00%     63.01% # attempts to use FU when none available
system.switch_cpus0.iq.fu_full::SimdFloatAdd            0      0.00%     63.01% # attempts to use FU when none available
system.switch_cpus0.iq.fu_full::SimdFloatAlu            0      0.00%     63.01% # attempts to use FU when none available
system.switch_cpus0.iq.fu_full::SimdFloatCmp            0      0.00%     63.01% # attempts to use FU when none available
system.switch_cpus0.iq.fu_full::SimdFloatCvt            0      0.00%     63.01% # attempts to use FU when none available
system.switch_cpus0.iq.fu_full::SimdFloatDiv            0      0.00%     63.01% # attempts to use FU when none available
system.switch_cpus0.iq.fu_full::SimdFloatMisc            0      0.00%     63.01% # attempts to use FU when none available
system.switch_cpus0.iq.fu_full::SimdFloatMult            0      0.00%     63.01% # attempts to use FU when none available
system.switch_cpus0.iq.fu_full::SimdFloatMultAcc            0      0.00%     63.01% # attempts to use FU when none available
system.switch_cpus0.iq.fu_full::SimdFloatSqrt            0      0.00%     63.01% # attempts to use FU when none available
system.switch_cpus0.iq.fu_full::SimdReduceAdd            0      0.00%     63.01% # attempts to use FU when none available
system.switch_cpus0.iq.fu_full::SimdReduceAlu            0      0.00%     63.01% # attempts to use FU when none available
system.switch_cpus0.iq.fu_full::SimdReduceCmp            0      0.00%     63.01% # attempts to use FU when none available
system.switch_cpus0.iq.fu_full::SimdFloatReduceAdd            0      0.00%     63.01% # attempts to use FU when none available
system.switch_cpus0.iq.fu_full::SimdFloatReduceCmp            0      0.00%     63.01% # attempts to use FU when none available
system.switch_cpus0.iq.fu_full::SimdAes             0      0.00%     63.01% # attempts to use FU when none available
system.switch_cpus0.iq.fu_full::SimdAesMix            0      0.00%     63.01% # attempts to use FU when none available
system.switch_cpus0.iq.fu_full::SimdSha1Hash            0      0.00%     63.01% # attempts to use FU when none available
system.switch_cpus0.iq.fu_full::SimdSha1Hash2            0      0.00%     63.01% # attempts to use FU when none available
system.switch_cpus0.iq.fu_full::SimdSha256Hash            0      0.00%     63.01% # attempts to use FU when none available
system.switch_cpus0.iq.fu_full::SimdSha256Hash2            0      0.00%     63.01% # attempts to use FU when none available
system.switch_cpus0.iq.fu_full::SimdShaSigma2            0      0.00%     63.01% # attempts to use FU when none available
system.switch_cpus0.iq.fu_full::SimdShaSigma3            0      0.00%     63.01% # attempts to use FU when none available
system.switch_cpus0.iq.fu_full::SimdPredAlu            0      0.00%     63.01% # attempts to use FU when none available
system.switch_cpus0.iq.fu_full::MemRead       3430851     30.66%     93.67% # attempts to use FU when none available
system.switch_cpus0.iq.fu_full::MemWrite       707900      6.33%    100.00% # attempts to use FU when none available
system.switch_cpus0.iq.fu_full::FloatMemRead            0      0.00%    100.00% # attempts to use FU when none available
system.switch_cpus0.iq.fu_full::FloatMemWrite            0      0.00%    100.00% # attempts to use FU when none available
system.switch_cpus0.iq.fu_full::IprAccess            0      0.00%    100.00% # attempts to use FU when none available
system.switch_cpus0.iq.fu_full::InstPrefetch            0      0.00%    100.00% # attempts to use FU when none available
system.switch_cpus0.iq.int_alu_accesses     378526029                       # Number of integer alu accesses
system.switch_cpus0.iq.int_inst_queue_reads    832823544                       # Number of integer instruction queue reads
system.switch_cpus0.iq.int_inst_queue_wakeup_accesses    361402002                       # Number of integer instruction queue wakeup accesses
system.switch_cpus0.iq.int_inst_queue_writes    475911367                       # Number of integer instruction queue writes
system.switch_cpus0.iq.iqInstsAdded         392622084                       # Number of instructions added to the IQ (excludes non-spec)
system.switch_cpus0.iq.iqInstsIssued        368125549                       # Number of instructions issued
system.switch_cpus0.iq.iqSquashedInstsExamined     83267317                       # Number of squashed instructions iterated over during squash; mainly for profiling
system.switch_cpus0.iq.iqSquashedInstsIssued       826725                       # Number of squashed instructions issued
system.switch_cpus0.iq.iqSquashedOperandsExamined    106423005                       # Number of squashed operands that are examined and possibly removed from graph
system.switch_cpus0.iq.issued_per_cycle::samples     84556489                       # Number of insts issued each cycle
system.switch_cpus0.iq.issued_per_cycle::mean     4.353605                       # Number of insts issued each cycle
system.switch_cpus0.iq.issued_per_cycle::stdev     2.812387                       # Number of insts issued each cycle
system.switch_cpus0.iq.issued_per_cycle::underflows            0      0.00%      0.00% # Number of insts issued each cycle
system.switch_cpus0.iq.issued_per_cycle::0     17454448     20.64%     20.64% # Number of insts issued each cycle
system.switch_cpus0.iq.issued_per_cycle::1      2421775      2.86%     23.51% # Number of insts issued each cycle
system.switch_cpus0.iq.issued_per_cycle::2      3548883      4.20%     27.70% # Number of insts issued each cycle
system.switch_cpus0.iq.issued_per_cycle::3      5702366      6.74%     34.45% # Number of insts issued each cycle
system.switch_cpus0.iq.issued_per_cycle::4      8378741      9.91%     44.36% # Number of insts issued each cycle
system.switch_cpus0.iq.issued_per_cycle::5      9440231     11.16%     55.52% # Number of insts issued each cycle
system.switch_cpus0.iq.issued_per_cycle::6     13945413     16.49%     72.01% # Number of insts issued each cycle
system.switch_cpus0.iq.issued_per_cycle::7     12206743     14.44%     86.45% # Number of insts issued each cycle
system.switch_cpus0.iq.issued_per_cycle::8     11457889     13.55%    100.00% # Number of insts issued each cycle
system.switch_cpus0.iq.issued_per_cycle::overflows            0      0.00%    100.00% # Number of insts issued each cycle
system.switch_cpus0.iq.issued_per_cycle::min_value            0                       # Number of insts issued each cycle
system.switch_cpus0.iq.issued_per_cycle::max_value            8                       # Number of insts issued each cycle
system.switch_cpus0.iq.issued_per_cycle::total     84556489                       # Number of insts issued each cycle
system.switch_cpus0.iq.rate                  4.349488                       # Inst issue rate
system.switch_cpus0.iq.vec_alu_accesses             0                       # Number of vector alu accesses
system.switch_cpus0.iq.vec_inst_queue_reads            0                       # Number of vector instruction queue reads
system.switch_cpus0.iq.vec_inst_queue_wakeup_accesses            0                       # Number of vector instruction queue wakeup accesses
system.switch_cpus0.iq.vec_inst_queue_writes            0                       # Number of vector instruction queue writes
system.switch_cpus0.memDep0.conflictingLoads     16914925                       # Number of conflicting loads.
system.switch_cpus0.memDep0.conflictingStores     10245614                       # Number of conflicting stores.
system.switch_cpus0.memDep0.insertedLoads     84738363                       # Number of loads inserted to the mem dependence unit.
system.switch_cpus0.memDep0.insertedStores     33452243                       # Number of stores inserted to the mem dependence unit.
system.switch_cpus0.misc_regfile_reads      174472170                       # number of misc regfile reads
system.switch_cpus0.misc_regfile_writes             1                       # number of misc regfile writes
system.switch_cpus0.numCycles                84636530                       # number of cpu cycles simulated
system.switch_cpus0.numWorkItemsCompleted            0                       # number of work items this cpu completed
system.switch_cpus0.numWorkItemsStarted             0                       # number of work items this cpu started
system.switch_cpus0.timesIdled                    298                       # Number of times that the entire CPU went into an idle state and unscheduled itself
system.switch_cpus1.cc_regfile_reads        111861879                       # number of cc regfile reads
system.switch_cpus1.cc_regfile_writes        75481784                       # number of cc regfile writes
system.switch_cpus1.committedInsts          226166333                       # Number of Instructions Simulated
system.switch_cpus1.committedOps            395054027                       # Number of Ops (including micro ops) Simulated
system.switch_cpus1.cpi                      0.374223                       # CPI: Cycles Per Instruction
system.switch_cpus1.cpi_total                0.374223                       # CPI: Total CPI of All Threads
system.switch_cpus1.fp_regfile_reads        311538322                       # number of floating regfile reads
system.switch_cpus1.fp_regfile_writes       171003458                       # number of floating regfile writes
system.switch_cpus1.idleCycles                 105190                       # Total number of cycles that the CPU has spent unscheduled due to idling
system.switch_cpus1.iew.branchMispredicts         3726                       # Number of branch mispredicts detected at execute
system.switch_cpus1.iew.exec_branches        24076802                       # Number of branches executed
system.switch_cpus1.iew.exec_nop                    0                       # number of nop insts executed
system.switch_cpus1.iew.exec_rate            4.669062                       # Inst execution rate
system.switch_cpus1.iew.exec_refs            79199166                       # number of memory reference insts executed
system.switch_cpus1.iew.exec_stores          21093531                       # Number of stores executed
system.switch_cpus1.iew.exec_swp                    0                       # number of swp insts executed
system.switch_cpus1.iew.iewBlockCycles        1007759                       # Number of cycles IEW is blocking
system.switch_cpus1.iew.iewDispLoadInsts     58119558                       # Number of dispatched load instructions
system.switch_cpus1.iew.iewDispNonSpecInsts            4                       # Number of dispatched non-speculative instructions
system.switch_cpus1.iew.iewDispSquashedInsts          946                       # Number of squashed instructions skipped by dispatch
system.switch_cpus1.iew.iewDispStoreInsts     21107238                       # Number of dispatched store instructions
system.switch_cpus1.iew.iewDispatchedInsts    395270653                       # Number of instructions dispatched to IQ
system.switch_cpus1.iew.iewExecLoadInsts     58105635                       # Number of load instructions executed
system.switch_cpus1.iew.iewExecSquashedInsts        13966                       # Number of squashed instructions skipped in execute
system.switch_cpus1.iew.iewExecutedInsts    395173618                       # Number of executed instructions
system.switch_cpus1.iew.iewIQFullEvents          8734                       # Number of times the IQ has become full, causing a stall
system.switch_cpus1.iew.iewIdleCycles               0                       # Number of cycles IEW is idle
system.switch_cpus1.iew.iewLSQFullEvents      1448917                       # Number of times the LSQ has become full, causing a stall
system.switch_cpus1.iew.iewSquashCycles          5655                       # Number of cycles IEW is squashing
system.switch_cpus1.iew.iewUnblockCycles      1464890                       # Number of cycles IEW is unblocking
system.switch_cpus1.iew.memOrderViolationEvents         2428                       # Number of memory order violations
system.switch_cpus1.iew.predictedNotTakenIncorrect         2309                       # Number of branches that were predicted not taken incorrectly
system.switch_cpus1.iew.predictedTakenIncorrect         1417                       # Number of branches that were predicted taken incorrectly
system.switch_cpus1.iew.wb_consumers        522962451                       # num instructions consuming a value
system.switch_cpus1.iew.wb_count            395163948                       # cumulative count of insts written-back
system.switch_cpus1.iew.wb_fanout            0.577694                       # average fanout of values written-back
system.switch_cpus1.iew.wb_producers        302112074                       # num instructions producing a value
system.switch_cpus1.iew.wb_rate              4.668947                       # insts written-back per cycle
system.switch_cpus1.iew.wb_sent             395167796                       # cumulative count of insts sent to commit
system.switch_cpus1.int_regfile_reads       353021749                       # number of integer regfile reads
system.switch_cpus1.int_regfile_writes      172084877                       # number of integer regfile writes
system.switch_cpus1.ipc                      2.672204                       # IPC: Instructions Per Cycle
system.switch_cpus1.ipc_total                2.672204                       # IPC: Total IPC of All Threads
system.switch_cpus1.iq.FU_type_0::No_OpClass         4614      0.00%      0.00% # Type of FU issued
system.switch_cpus1.iq.FU_type_0::IntAlu    212206646     53.70%     53.70% # Type of FU issued
system.switch_cpus1.iq.FU_type_0::IntMult        13302      0.00%     53.70% # Type of FU issued
system.switch_cpus1.iq.FU_type_0::IntDiv            0      0.00%     53.70% # Type of FU issued
system.switch_cpus1.iq.FU_type_0::FloatAdd     18370890      4.65%     58.35% # Type of FU issued
system.switch_cpus1.iq.FU_type_0::FloatCmp            0      0.00%     58.35% # Type of FU issued
system.switch_cpus1.iq.FU_type_0::FloatCvt           10      0.00%     58.35% # Type of FU issued
system.switch_cpus1.iq.FU_type_0::FloatMult            0      0.00%     58.35% # Type of FU issued
system.switch_cpus1.iq.FU_type_0::FloatMultAcc            0      0.00%     58.35% # Type of FU issued
system.switch_cpus1.iq.FU_type_0::FloatDiv            0      0.00%     58.35% # Type of FU issued
system.switch_cpus1.iq.FU_type_0::FloatMisc            0      0.00%     58.35% # Type of FU issued
system.switch_cpus1.iq.FU_type_0::FloatSqrt            0      0.00%     58.35% # Type of FU issued
system.switch_cpus1.iq.FU_type_0::SimdAdd            0      0.00%     58.35% # Type of FU issued
system.switch_cpus1.iq.FU_type_0::SimdAddAcc            0      0.00%     58.35% # Type of FU issued
system.switch_cpus1.iq.FU_type_0::SimdAlu     11892167      3.01%     61.36% # Type of FU issued
system.switch_cpus1.iq.FU_type_0::SimdCmp            0      0.00%     61.36% # Type of FU issued
system.switch_cpus1.iq.FU_type_0::SimdCvt            0      0.00%     61.36% # Type of FU issued
system.switch_cpus1.iq.FU_type_0::SimdMisc      6895824      1.74%     63.11% # Type of FU issued
system.switch_cpus1.iq.FU_type_0::SimdMult            0      0.00%     63.11% # Type of FU issued
system.switch_cpus1.iq.FU_type_0::SimdMultAcc            0      0.00%     63.11% # Type of FU issued
system.switch_cpus1.iq.FU_type_0::SimdShift            0      0.00%     63.11% # Type of FU issued
system.switch_cpus1.iq.FU_type_0::SimdShiftAcc            0      0.00%     63.11% # Type of FU issued
system.switch_cpus1.iq.FU_type_0::SimdDiv            0      0.00%     63.11% # Type of FU issued
system.switch_cpus1.iq.FU_type_0::SimdSqrt            0      0.00%     63.11% # Type of FU issued
system.switch_cpus1.iq.FU_type_0::SimdFloatAdd     33471600      8.47%     71.57% # Type of FU issued
system.switch_cpus1.iq.FU_type_0::SimdFloatAlu            0      0.00%     71.57% # Type of FU issued
system.switch_cpus1.iq.FU_type_0::SimdFloatCmp       143185      0.04%     71.61% # Type of FU issued
system.switch_cpus1.iq.FU_type_0::SimdFloatCvt      7847441      1.99%     73.60% # Type of FU issued
system.switch_cpus1.iq.FU_type_0::SimdFloatDiv      2287353      0.58%     74.18% # Type of FU issued
system.switch_cpus1.iq.FU_type_0::SimdFloatMisc            0      0.00%     74.18% # Type of FU issued
system.switch_cpus1.iq.FU_type_0::SimdFloatMult     22626089      5.73%     79.90% # Type of FU issued
system.switch_cpus1.iq.FU_type_0::SimdFloatMultAcc            0      0.00%     79.90% # Type of FU issued
system.switch_cpus1.iq.FU_type_0::SimdFloatSqrt       222980      0.06%     79.96% # Type of FU issued
system.switch_cpus1.iq.FU_type_0::SimdReduceAdd            0      0.00%     79.96% # Type of FU issued
system.switch_cpus1.iq.FU_type_0::SimdReduceAlu            0      0.00%     79.96% # Type of FU issued
system.switch_cpus1.iq.FU_type_0::SimdReduceCmp            0      0.00%     79.96% # Type of FU issued
system.switch_cpus1.iq.FU_type_0::SimdFloatReduceAdd            0      0.00%     79.96% # Type of FU issued
system.switch_cpus1.iq.FU_type_0::SimdFloatReduceCmp            0      0.00%     79.96% # Type of FU issued
system.switch_cpus1.iq.FU_type_0::SimdAes            0      0.00%     79.96% # Type of FU issued
system.switch_cpus1.iq.FU_type_0::SimdAesMix            0      0.00%     79.96% # Type of FU issued
system.switch_cpus1.iq.FU_type_0::SimdSha1Hash            0      0.00%     79.96% # Type of FU issued
[...]
system.switch_cpus3.commit.numCommittedDist::0     28434934     39.55%     39.55% # Number of insts commited each cycle
system.switch_cpus3.commit.numCommittedDist::1     16796108     23.36%     62.92% # Number of insts commited each cycle
system.switch_cpus3.commit.numCommittedDist::2      3708579      5.16%     68.08% # Number of insts commited each cycle
system.switch_cpus3.commit.numCommittedDist::3      9536316     13.27%     81.34% # Number of insts commited each cycle
system.switch_cpus3.commit.numCommittedDist::4      3219055      4.48%     85.82% # Number of insts commited each cycle
system.switch_cpus3.commit.numCommittedDist::5      1771977      2.46%     88.28% # Number of insts commited each cycle
system.switch_cpus3.commit.numCommittedDist::6       770554      1.07%     89.36% # Number of insts commited each cycle
system.switch_cpus3.commit.numCommittedDist::7       681183      0.95%     90.30% # Number of insts commited each cycle
system.switch_cpus3.commit.numCommittedDist::8      6970438      9.70%    100.00% # Number of insts commited each cycle
system.switch_cpus3.commit.numCommittedDist::overflows            0      0.00%    100.00% # Number of insts commited each cycle
system.switch_cpus3.commit.numCommittedDist::min_value            0                       # Number of insts commited each cycle
system.switch_cpus3.commit.numCommittedDist::max_value            8                       # Number of insts commited each cycle
system.switch_cpus3.commit.numCommittedDist::total     71889144                       # Number of insts commited each cycle
system.switch_cpus3.commit.instsCommitted     96251925                       # Number of instructions committed
system.switch_cpus3.commit.opsCommitted     139713428                       # Number of ops (including micro ops) committed
system.switch_cpus3.commit.memRefs           20522084                       # Number of memory references committed
system.switch_cpus3.commit.loads             14317330                       # Number of loads committed
system.switch_cpus3.commit.amos                     0                       # Number of atomic instructions committed
system.switch_cpus3.commit.membars                  0                       # Number of memory barriers committed
system.switch_cpus3.commit.branches          11429267                       # Number of branches committed
system.switch_cpus3.commit.vector                   0                       # Number of committed Vector instructions.
system.switch_cpus3.commit.floating            503282                       # Number of committed floating point instructions.
system.switch_cpus3.commit.integer          139712898                       # Number of committed integer instructions.
system.switch_cpus3.commit.functionCalls        28126                       # Number of function calls committed.
system.switch_cpus3.commit.committedInstType_0::No_OpClass          245      0.00%      0.00% # Class of committed instruction
system.switch_cpus3.commit.committedInstType_0::IntAlu    115738798     82.84%     82.84% # Class of committed instruction
system.switch_cpus3.commit.committedInstType_0::IntMult      3452301      2.47%     85.31% # Class of committed instruction
system.switch_cpus3.commit.committedInstType_0::IntDiv            0      0.00%     85.31% # Class of committed instruction
system.switch_cpus3.commit.committedInstType_0::FloatAdd            0      0.00%     85.31% # Class of committed instruction
system.switch_cpus3.commit.committedInstType_0::FloatCmp            0      0.00%     85.31% # Class of committed instruction
system.switch_cpus3.commit.committedInstType_0::FloatCvt            0      0.00%     85.31% # Class of committed instruction
system.switch_cpus3.commit.committedInstType_0::FloatMult            0      0.00%     85.31% # Class of committed instruction
system.switch_cpus3.commit.committedInstType_0::FloatMultAcc            0      0.00%     85.31% # Class of committed instruction
system.switch_cpus3.commit.committedInstType_0::FloatDiv            0      0.00%     85.31% # Class of committed instruction
system.switch_cpus3.commit.committedInstType_0::FloatMisc            0      0.00%     85.31% # Class of committed instruction
system.switch_cpus3.commit.committedInstType_0::FloatSqrt            0      0.00%     85.31% # Class of committed instruction
system.switch_cpus3.commit.committedInstType_0::SimdAdd            0      0.00%     85.31% # Class of committed instruction
system.switch_cpus3.commit.committedInstType_0::SimdAddAcc            0      0.00%     85.31% # Class of committed instruction
system.switch_cpus3.commit.committedInstType_0::SimdAlu            0      0.00%     85.31% # Class of committed instruction
system.switch_cpus3.commit.committedInstType_0::SimdCmp            0      0.00%     85.31% # Class of committed instruction
system.switch_cpus3.commit.committedInstType_0::SimdCvt            0      0.00%     85.31% # Class of committed instruction
system.switch_cpus3.commit.committedInstType_0::SimdMisc            0      0.00%     85.31% # Class of committed instruction
system.switch_cpus3.commit.committedInstType_0::SimdMult            0      0.00%     85.31% # Class of committed instruction
system.switch_cpus3.commit.committedInstType_0::SimdMultAcc            0      0.00%     85.31% # Class of committed instruction
system.switch_cpus3.commit.committedInstType_0::SimdShift            0      0.00%     85.31% # Class of committed instruction
system.switch_cpus3.commit.committedInstType_0::SimdShiftAcc            0      0.00%     85.31% # Class of committed instruction
system.switch_cpus3.commit.committedInstType_0::SimdDiv            0      0.00%     85.31% # Class of committed instruction
system.switch_cpus3.commit.committedInstType_0::SimdSqrt            0      0.00%     85.31% # Class of committed instruction
system.switch_cpus3.commit.committedInstType_0::SimdFloatAdd            0      0.00%     85.31% # Class of committed instruction
system.switch_cpus3.commit.committedInstType_0::SimdFloatAlu            0      0.00%     85.31% # Class of committed instruction
system.switch_cpus3.commit.committedInstType_0::SimdFloatCmp            0      0.00%     85.31% # Class of committed instruction
system.switch_cpus3.commit.committedInstType_0::SimdFloatCvt            0      0.00%     85.31% # Class of committed instruction
system.switch_cpus3.commit.committedInstType_0::SimdFloatDiv            0      0.00%     85.31% # Class of committed instruction
system.switch_cpus3.commit.committedInstType_0::SimdFloatMisc            0      0.00%     85.31% # Class of committed instruction
system.switch_cpus3.commit.committedInstType_0::SimdFloatMult            0      0.00%     85.31% # Class of committed instruction
system.switch_cpus3.commit.committedInstType_0::SimdFloatMultAcc            0      0.00%     85.31% # Class of committed instruction
system.switch_cpus3.commit.committedInstType_0::SimdFloatSqrt            0      0.00%     85.31% # Class of committed instruction
system.switch_cpus3.commit.committedInstType_0::SimdReduceAdd            0      0.00%     85.31% # Class of committed instruction
system.switch_cpus3.commit.committedInstType_0::SimdReduceAlu            0      0.00%     85.31% # Class of committed instruction
system.switch_cpus3.commit.committedInstType_0::SimdReduceCmp            0      0.00%     85.31% # Class of committed instruction
system.switch_cpus3.commit.committedInstType_0::SimdFloatReduceAdd            0      0.00%     85.31% # Class of committed instruction
system.switch_cpus3.commit.committedInstType_0::SimdFloatReduceCmp            0      0.00%     85.31% # Class of committed instruction
system.switch_cpus3.commit.committedInstType_0::SimdAes            0      0.00%     85.31% # Class of committed instruction
system.switch_cpus3.commit.committedInstType_0::SimdAesMix            0      0.00%     85.31% # Class of committed instruction
system.switch_cpus3.commit.committedInstType_0::SimdSha1Hash            0      0.00%     85.31% # Class of committed instruction
system.switch_cpus3.commit.committedInstType_0::SimdSha1Hash2            0      0.00%     85.31% # Class of committed instruction
system.switch_cpus3.commit.committedInstType_0::SimdSha256Hash            0      0.00%     85.31% # Class of committed instruction
system.switch_cpus3.commit.committedInstType_0::SimdSha256Hash2            0      0.00%     85.31% # Class of committed instruction
system.switch_cpus3.commit.committedInstType_0::SimdShaSigma2            0      0.00%     85.31% # Class of committed instruction
system.switch_cpus3.commit.committedInstType_0::SimdShaSigma3            0      0.00%     85.31% # Class of committed instruction
system.switch_cpus3.commit.committedInstType_0::SimdPredAlu            0      0.00%     85.31% # Class of committed instruction
system.switch_cpus3.commit.committedInstType_0::MemRead     14065698     10.07%     95.38% # Class of committed instruction
system.switch_cpus3.commit.committedInstType_0::MemWrite      5953104      4.26%     99.64% # Class of committed instruction
system.switch_cpus3.commit.committedInstType_0::FloatMemRead       251632      0.18%     99.82% # Class of committed instruction
system.switch_cpus3.commit.committedInstType_0::FloatMemWrite       251650      0.18%    100.00% # Class of committed instruction
system.switch_cpus3.commit.committedInstType_0::IprAccess            0      0.00%    100.00% # Class of committed instruction
system.switch_cpus3.commit.committedInstType_0::InstPrefetch            0      0.00%    100.00% # Class of committed instruction
system.switch_cpus3.commit.committedInstType_0::total    139713428                       # Class of committed instruction
system.switch_cpus3.commit.commitEligibleSamples      6970438                       # number cycles where commit BW limit reached
system.switch_cpus3.decode.idleCycles         7268260                       # Number of cycles decode is idle
system.switch_cpus3.decode.blockedCycles     40581671                       # Number of cycles decode is blocked
system.switch_cpus3.decode.runCycles         23755973                       # Number of cycles decode is running
system.switch_cpus3.decode.unblockCycles     11703386                       # Number of cycles decode is unblocking
system.switch_cpus3.decode.squashCycles       1258746                       # Number of cycles decode is squashing
system.switch_cpus3.decode.branchResolved     14177048                       # Number of times decode resolved a  branch
system.switch_cpus3.decode.branchMispred         1661                       # Number of times decode detected a branch misprediction
system.switch_cpus3.decode.decodedInsts     256661728                       # Number of instructions handled by decode
system.switch_cpus3.decode.squashedInsts         4377                       # Number of squashed instructions handled by decode
system.switch_cpus3.dtb.rdAccesses           22967378                       # TLB accesses on read requests
system.switch_cpus3.dtb.wrAccesses           10271547                       # TLB accesses on write requests
system.switch_cpus3.dtb.rdMisses                13941                       # TLB misses on read requests
system.switch_cpus3.dtb.wrMisses                  685                       # TLB misses on write requests
system.switch_cpus3.dtb.walker.power_state.pwrStateResidencyTicks::UNDEFINED 14978630125917                       # Cumulative time (in ticks) in various power states
system.switch_cpus3.fetch.icacheStallCycles      1153452                       # Number of cycles fetch is stalled on an Icache miss
system.switch_cpus3.fetch.insts             195550202                       # Number of instructions fetch has processed
system.switch_cpus3.fetch.branches           22792759                       # Number of branches that fetch encountered
system.switch_cpus3.fetch.predictedBranches     15751539                       # Number of branches that fetch has predicted taken
system.switch_cpus3.fetch.cycles             82154166                       # Number of cycles fetch has run and was not squashing or blocked
system.switch_cpus3.fetch.squashCycles        2520784                       # Number of cycles fetch has spent squashing
system.switch_cpus3.fetch.miscStallCycles            4                       # Number of cycles fetch has spent waiting on interrupts,or bad addresses, or out of MSHRs
system.switch_cpus3.fetch.pendingTrapStallCycles           28                       # Number of stall cycles due to pending traps
system.switch_cpus3.fetch.cacheLines         26107900                       # Number of cache lines fetched
system.switch_cpus3.fetch.icacheSquashes          238                       # Number of outstanding Icache misses that were squashed
system.switch_cpus3.fetch.nisnDist::samples     84568042                       # Number of instructions fetched each cycle (Total)
system.switch_cpus3.fetch.nisnDist::mean     3.411373                       # Number of instructions fetched each cycle (Total)
system.switch_cpus3.fetch.nisnDist::stdev     3.358840                       # Number of instructions fetched each cycle (Total)
system.switch_cpus3.fetch.nisnDist::underflows            0      0.00%      0.00% # Number of instructions fetched each cycle (Total)
system.switch_cpus3.fetch.nisnDist::0        32086344     37.94%     37.94% # Number of instructions fetched each cycle (Total)
system.switch_cpus3.fetch.nisnDist::1         4824455      5.70%     43.65% # Number of instructions fetched each cycle (Total)
system.switch_cpus3.fetch.nisnDist::2         5633178      6.66%     50.31% # Number of instructions fetched each cycle (Total)
system.switch_cpus3.fetch.nisnDist::3         4245565      5.02%     55.33% # Number of instructions fetched each cycle (Total)
system.switch_cpus3.fetch.nisnDist::4         4532017      5.36%     60.69% # Number of instructions fetched each cycle (Total)
system.switch_cpus3.fetch.nisnDist::5         5409885      6.40%     67.08% # Number of instructions fetched each cycle (Total)
system.switch_cpus3.fetch.nisnDist::6         3219479      3.81%     70.89% # Number of instructions fetched each cycle (Total)
system.switch_cpus3.fetch.nisnDist::7         1765698      2.09%     72.98% # Number of instructions fetched each cycle (Total)
system.switch_cpus3.fetch.nisnDist::8        22851421     27.02%    100.00% # Number of instructions fetched each cycle (Total)
system.switch_cpus3.fetch.nisnDist::overflows            0      0.00%    100.00% # Number of instructions fetched each cycle (Total)
system.switch_cpus3.fetch.nisnDist::min_value            0                       # Number of instructions fetched each cycle (Total)
system.switch_cpus3.fetch.nisnDist::max_value            8                       # Number of instructions fetched each cycle (Total)
system.switch_cpus3.fetch.nisnDist::total     84568042                       # Number of instructions fetched each cycle (Total)
system.switch_cpus3.fetch.branchRate         0.269301                       # Number of branch fetches per cycle
system.switch_cpus3.fetch.rate               2.310468                       # Number of inst fetches per cycle
system.switch_cpus3.itb.rdAccesses                  0                       # TLB accesses on read requests
system.switch_cpus3.itb.wrAccesses           26107906                       # TLB accesses on write requests
system.switch_cpus3.itb.rdMisses                    0                       # TLB misses on read requests
system.switch_cpus3.itb.wrMisses                   25                       # TLB misses on write requests
system.switch_cpus3.itb.walker.power_state.pwrStateResidencyTicks::UNDEFINED 14978630125917                       # Cumulative time (in ticks) in various power states
system.switch_cpus3.lsq0.forwLoads            2759892                       # Number of loads that had data forwarded from stores
system.switch_cpus3.lsq0.squashedLoads       12515539                       # Number of loads squashed
system.switch_cpus3.lsq0.ignoredResponses         2434                       # Number of memory responses ignored because the instruction is squashed
system.switch_cpus3.lsq0.memOrderViolation         7736                       # Number of memory ordering violations
system.switch_cpus3.lsq0.squashedStores       8247784                       # Number of stores squashed
system.switch_cpus3.lsq0.rescheduledLoads            2                       # Number of loads that were rescheduled
system.switch_cpus3.lsq0.blockedByCache           136                       # Number of times an access to memory failed due to the cache being blocked
system.switch_cpus3.power_state.pwrStateResidencyTicks::OFF  28184007114                       # Cumulative time (in ticks) in various power states
system.switch_cpus3.rename.squashCycles       1258746                       # Number of cycles rename is squashing
system.switch_cpus3.rename.idleCycles        11898160                       # Number of cycles rename is idle
system.switch_cpus3.rename.blockCycles       18698082                       # Number of cycles rename is blocking
system.switch_cpus3.rename.serializeStallCycles            0                       # count of cycles rename stalledfor serializing inst
system.switch_cpus3.rename.runCycles         30623402                       # Number of cycles rename is running
system.switch_cpus3.rename.unblockCycles     22089646                       # Number of cycles rename is unblocking
system.switch_cpus3.rename.renamedInsts     249561503                       # Number of instructions processed by rename
system.switch_cpus3.rename.ROBFullEvents        13971                       # Number of times rename has blocked due to ROB full
system.switch_cpus3.rename.IQFullEvents      15790509                       # Number of times rename has blocked due to IQ full
system.switch_cpus3.rename.LQFullEvents         12244                       # Number of times rename has blocked due to LQ full
system.switch_cpus3.rename.SQFullEvents       4236919                       # Number of times rename has blocked due to SQ full
system.switch_cpus3.rename.renamedOperands    357690876                       # Number of destination operands rename has renamed
system.switch_cpus3.rename.lookups          640364647                       # Number of register rename lookups that rename has made
system.switch_cpus3.rename.intLookups       434160216                       # Number of integer rename lookups
system.switch_cpus3.rename.fpLookups          2562421                       # Number of floating rename lookups
system.switch_cpus3.rename.committedMaps    205679081                       # Number of HB maps that are committed
system.switch_cpus3.rename.undoneMaps       152011795                       # Number of HB maps that are undone due to squashing
system.switch_cpus3.rename.serializing              0                       # count of serializing insts renamed
system.switch_cpus3.rename.tempSerializing            0                       # count of temporary serializing insts renamed
system.switch_cpus3.rename.skidInsts         47806259                       # count of insts added to the skid buffer
system.switch_cpus3.rob.reads               300091984                       # The number of ROB reads
system.switch_cpus3.rob.writes              485699416                       # The number of ROB writes
system.switch_cpus3.thread0.numInsts         96251925                       # Number of Instructions committed
system.switch_cpus3.thread0.numOps          139713428                       # Number of Ops committed
system.switch_cpus3.thread0.numMemRefs              0                       # Number of Memory References
system.voltage_domain.voltage                       1                       # Voltage in Volts

---------- End Simulation Statistics   ----------
