
---------- Begin Simulation Statistics ----------
final_tick                               14978629180863                       # Number of ticks from beginning of simulation (restored from checkpoints and never reset)
host_inst_rate                                 175412                       # Simulator instruction rate (inst/s)
host_mem_usage                               17300004                       # Number of bytes of host memory used
host_op_rate                                   304606                       # Simulator op (including micro ops) rate (op/s)
host_seconds                                  4160.00                       # Real time elapsed on the host
host_tick_rate                                6774759                       # Simulator tick rate (ticks/s)
sim_freq                                 1000000000000                       # Frequency of simulated ticks
sim_insts                                   729712538                       # Number of instructions simulated
sim_ops                                    1267162725                       # Number of ops (including micro ops) simulated
sim_seconds                                  0.028183                       # Number of seconds simulated
sim_ticks                                 28182998790                       # Number of ticks simulated
system.cpu0.Branches                                3                       # Number of branches fetched
system.cpu0.committedInsts                         13                       # Number of instructions committed
system.cpu0.committedOps                           26                       # Number of ops (including micro ops) committed
system.cpu0.idle_fraction                           0                       # Percentage of idle cycles
system.cpu0.l2bus.snoop_filter.hit_multi_requests            0                       # Number of requests hitting in the snoop filter with multiple (>1) holders of the requested data.
system.cpu0.l2bus.snoop_filter.hit_multi_snoops            0                       # Number of snoops hitting in the snoop filter with multiple (>1) holders of the requested data.
system.cpu0.l2bus.snoop_filter.hit_single_requests            3                       # Number of requests hitting in the snoop filter with a single holder of the requested data.
system.cpu0.l2bus.snoop_filter.hit_single_snoops            0                       # Number of snoops hitting in the snoop filter with a single holder of the requested data.
system.cpu0.l2bus.snoop_filter.tot_requests          690                       # Total number of requests made to the snoop filter.
system.cpu0.l2bus.snoop_filter.tot_snoops            0                       # Total number of snoops made to the snoop filter.
system.cpu0.mmucache.mmubus.snoop_filter.hit_multi_requests            0                       # Number of requests hitting in the snoop filter with multiple (>1) holders of the requested data.
system.cpu0.mmucache.mmubus.snoop_filter.hit_multi_snoops            0                       # Number of snoops hitting in the snoop filter with multiple (>1) holders of the requested data.
system.cpu0.mmucache.mmubus.snoop_filter.hit_single_requests            0                       # Number of requests hitting in the snoop filter with a single holder of the requested data.
system.cpu0.mmucache.mmubus.snoop_filter.hit_single_snoops            0                       # Number of snoops hitting in the snoop filter with a single holder of the requested data.
system.cpu0.mmucache.mmubus.snoop_filter.tot_requests            0                       # Total number of requests made to the snoop filter.
system.cpu0.mmucache.mmubus.snoop_filter.tot_snoops            0                       # Total number of snoops made to the snoop filter.
system.cpu0.not_idle_fraction                       1                       # Percentage of non-idle cycles
system.cpu0.numCycles                              30                       # number of cpu cycles simulated
system.cpu0.numWorkItemsCompleted                   0                       # number of work items this cpu completed
system.cpu0.numWorkItemsStarted                     0                       # number of work items this cpu started
system.cpu0.num_busy_cycles                        30                       # Number of busy cycles
system.cpu0.num_cc_register_reads                  12                       # number of times the CC registers were read
system.cpu0.num_cc_register_writes                 10                       # number of times the CC registers were written
system.cpu0.num_conditional_control_insts            2                       # number of instructions that are conditional controls
system.cpu0.num_fp_alu_accesses                     0                       # Number of float alu accesses
system.cpu0.num_fp_insts                            0                       # number of float instructions
system.cpu0.num_fp_register_reads                   0                       # number of times the floating registers were read
system.cpu0.num_fp_register_writes                  0                       # number of times the floating registers were written
system.cpu0.num_func_calls                          0                       # number of times a function call or return occured
system.cpu0.num_idle_cycles                         0                       # Number of idle cycles
system.cpu0.num_int_alu_accesses                   25                       # Number of integer alu accesses
system.cpu0.num_int_insts                          25                       # number of integer instructions
system.cpu0.num_int_register_reads                 43                       # number of times the integer registers were read
system.cpu0.num_int_register_writes                21                       # number of times the integer registers were written
system.cpu0.num_load_insts                          2                       # Number of load instructions
system.cpu0.num_mem_refs                            3                       # number of memory refs
system.cpu0.num_store_insts                         1                       # Number of store instructions
system.cpu0.num_vec_alu_accesses                    0                       # Number of vector alu accesses
system.cpu0.num_vec_insts                           0                       # number of vector instructions
system.cpu0.num_vec_register_reads                  0                       # number of times the vector registers were read
system.cpu0.num_vec_register_writes                 0                       # number of times the vector registers were written
system.cpu0.op_class::No_OpClass                    1      3.85%      3.85% # Class of executed instruction
system.cpu0.op_class::IntAlu                       22     84.62%     88.46% # Class of executed instruction
system.cpu0.op_class::IntMult                       0      0.00%     88.46% # Class of executed instruction
system.cpu0.op_class::IntDiv                        0      0.00%     88.46% # Class of executed instruction
system.cpu0.op_class::FloatAdd                      0      0.00%     88.46% # Class of executed instruction
system.cpu0.op_class::FloatCmp                      0      0.00%     88.46% # Class of executed instruction
system.cpu0.op_class::FloatCvt                      0      0.00%     88.46% # Class of executed instruction
system.cpu0.op_class::FloatMult                     0      0.00%     88.46% # Class of executed instruction
system.cpu0.op_class::FloatMultAcc                  0      0.00%     88.46% # Class of executed instruction
system.cpu0.op_class::FloatDiv                      0      0.00%     88.46% # Class of executed instruction
system.cpu0.op_class::FloatMisc                     0      0.00%     88.46% # Class of executed instruction
system.cpu0.op_class::FloatSqrt                     0      0.00%     88.46% # Class of executed instruction
system.cpu0.op_class::SimdAdd                       0      0.00%     88.46% # Class of executed instruction
system.cpu0.op_class::SimdAddAcc                    0      0.00%     88.46% # Class of executed instruction
system.cpu0.op_class::SimdAlu                       0      0.00%     88.46% # Class of executed instruction
system.cpu0.op_class::SimdCmp                       0      0.00%     88.46% # Class of executed instruction
system.cpu0.op_class::SimdCvt                       0      0.00%     88.46% # Class of executed instruction
system.cpu0.op_class::SimdMisc                      0      0.00%     88.46% # Class of executed instruction
system.cpu0.op_class::SimdMult                      0      0.00%     88.46% # Class of executed instruction
system.cpu0.op_class::SimdMultAcc                   0      0.00%     88.46% # Class of executed instruction
system.cpu0.op_class::SimdShift                     0      0.00%     88.46% # Class of executed instruction
system.cpu0.op_class::SimdShiftAcc                  0      0.00%     88.46% # Class of executed instruction
system.cpu0.op_class::SimdDiv                       0      0.00%     88.46% # Class of executed instruction
system.cpu0.op_class::SimdSqrt                      0      0.00%     88.46% # Class of executed instruction
system.cpu0.op_class::SimdFloatAdd                  0      0.00%     88.46% # Class of executed instruction
system.cpu0.op_class::SimdFloatAlu                  0      0.00%     88.46% # Class of executed instruction
system.cpu0.op_class::SimdFloatCmp                  0      0.00%     88.46% # Class of executed instruction
system.cpu0.op_class::SimdFloatCvt                  0      0.00%     88.46% # Class of executed instruction
system.cpu0.op_class::SimdFloatDiv                  0      0.00%     88.46% # Class of executed instruction
system.cpu0.op_class::SimdFloatMisc                 0      0.00%     88.46% # Class of executed instruction
system.cpu0.op_class::SimdFloatMult                 0      0.00%     88.46% # Class of executed instruction
system.cpu0.op_class::SimdFloatMultAcc              0      0.00%     88.46% # Class of executed instruction
system.cpu0.op_class::SimdFloatSqrt                 0      0.00%     88.46% # Class of executed instruction
system.cpu0.op_class::SimdReduceAdd                 0      0.00%     88.46% # Class of executed instruction
system.cpu0.op_class::SimdReduceAlu                 0      0.00%     88.46% # Class of executed instruction
system.cpu0.op_class::SimdReduceCmp                 0      0.00%     88.46% # Class of executed instruction
system.cpu0.op_class::SimdFloatReduceAdd            0      0.00%     88.46% # Class of executed instruction
system.cpu0.op_class::SimdFloatReduceCmp            0      0.00%     88.46% # Class of executed instruction
system.cpu0.op_class::SimdAes                       0      0.00%     88.46% # Class of executed instruction
system.cpu0.op_class::SimdAesMix                    0      0.00%     88.46% # Class of executed instruction
system.cpu0.op_class::SimdSha1Hash                  0      0.00%     88.46% # Class of executed instruction
system.cpu0.op_class::SimdSha1Hash2                 0      0.00%     88.46% # Class of executed instruction
system.cpu0.op_class::SimdSha256Hash                0      0.00%     88.46% # Class of executed instruction
system.cpu0.op_class::SimdSha256Hash2               0      0.00%     88.46% # Class of executed instruction
system.cpu0.op_class::SimdShaSigma2                 0      0.00%     88.46% # Class of executed instruction
system.cpu0.op_class::SimdShaSigma3                 0      0.00%     88.46% # Class of executed instruction
system.cpu0.op_class::SimdPredAlu                   0      0.00%     88.46% # Class of executed instruction
system.cpu0.op_class::MemRead                       2      7.69%     96.15% # Class of executed instruction
system.cpu0.op_class::MemWrite                      1      3.85%    100.00% # Class of executed instruction
system.cpu0.op_class::FloatMemRead                  0      0.00%    100.00% # Class of executed instruction
system.cpu0.op_class::FloatMemWrite                 0      0.00%    100.00% # Class of executed instruction
system.cpu0.op_class::IprAccess                     0      0.00%    100.00% # Class of executed instruction
system.cpu0.op_class::InstPrefetch                  0      0.00%    100.00% # Class of executed instruction
system.cpu0.op_class::total                        26                       # Class of executed instruction
system.cpu0.workload.numSyscalls                    0                       # Number of system calls
system.cpu1.Branches                                1                       # Number of branches fetched
system.cpu1.committedInsts                         16                       # Number of instructions committed
system.cpu1.committedOps                           22                       # Number of ops (including micro ops) committed
system.cpu1.idle_fraction                           0                       # Percentage of idle cycles
system.cpu1.l2bus.snoop_filter.hit_multi_requests            4                       # Number of requests hitting in the snoop filter with multiple (>1) holders of the requested data.
system.cpu1.l2bus.snoop_filter.hit_multi_snoops            0                       # Number of snoops hitting in the snoop filter with multiple (>1) holders of the requested data.
system.cpu1.l2bus.snoop_filter.hit_single_requests       690784                       # Number of requests hitting in the snoop filter with a single holder of the requested data.
system.cpu1.l2bus.snoop_filter.hit_single_snoops         1308                       # Number of snoops hitting in the snoop filter with a single holder of the requested data.
system.cpu1.l2bus.snoop_filter.tot_requests      1382516                       # Total number of requests made to the snoop filter.
system.cpu1.l2bus.snoop_filter.tot_snoops         1308                       # Total number of snoops made to the snoop filter.
system.cpu1.mmucache.mmubus.snoop_filter.hit_multi_requests            0                       # Number of requests hitting in the snoop filter with multiple (>1) holders of the requested data.
system.cpu1.mmucache.mmubus.snoop_filter.hit_multi_snoops            0                       # Number of snoops hitting in the snoop filter with multiple (>1) holders of the requested data.
system.cpu1.mmucache.mmubus.snoop_filter.hit_single_requests            0                       # Number of requests hitting in the snoop filter with a single holder of the requested data.
system.cpu1.mmucache.mmubus.snoop_filter.hit_single_snoops            0                       # Number of snoops hitting in the snoop filter with a single holder of the requested data.
system.cpu1.mmucache.mmubus.snoop_filter.tot_requests            0                       # Total number of requests made to the snoop filter.
system.cpu1.mmucache.mmubus.snoop_filter.tot_snoops            0                       # Total number of snoops made to the snoop filter.
system.cpu1.not_idle_fraction                       1                       # Percentage of non-idle cycles
system.cpu1.numCycles                              30                       # number of cpu cycles simulated
system.cpu1.numWorkItemsCompleted                   0                       # number of work items this cpu completed
system.cpu1.numWorkItemsStarted                     0                       # number of work items this cpu started
system.cpu1.num_busy_cycles                        30                       # Number of busy cycles
system.cpu1.num_cc_register_reads                   4                       # number of times the CC registers were read
system.cpu1.num_cc_register_writes                  8                       # number of times the CC registers were written
system.cpu1.num_conditional_control_insts            0                       # number of instructions that are conditional controls
system.cpu1.num_fp_alu_accesses                     8                       # Number of float alu accesses
system.cpu1.num_fp_insts                            8                       # number of float instructions
system.cpu1.num_fp_register_reads                   8                       # number of times the floating registers were read
system.cpu1.num_fp_register_writes                  7                       # number of times the floating registers were written
system.cpu1.num_func_calls                          0                       # number of times a function call or return occured
system.cpu1.num_idle_cycles                         0                       # Number of idle cycles
system.cpu1.num_int_alu_accesses                   17                       # Number of integer alu accesses
system.cpu1.num_int_insts                          17                       # number of integer instructions
system.cpu1.num_int_register_reads                 37                       # number of times the integer registers were read
system.cpu1.num_int_register_writes                12                       # number of times the integer registers were written
system.cpu1.num_load_insts                          2                       # Number of load instructions
system.cpu1.num_mem_refs                            4                       # number of memory refs
system.cpu1.num_store_insts                         2                       # Number of store instructions
system.cpu1.num_vec_alu_accesses                    0                       # Number of vector alu accesses
system.cpu1.num_vec_insts                           0                       # number of vector instructions
system.cpu1.num_vec_register_reads                  0                       # number of times the vector registers were read
system.cpu1.num_vec_register_writes                 0                       # number of times the vector registers were written
system.cpu1.op_class::No_OpClass                    0      0.00%      0.00% # Class of executed instruction
system.cpu1.op_class::IntAlu                       14     63.64%     63.64% # Class of executed instruction
system.cpu1.op_class::IntMult                       0      0.00%     63.64% # Class of executed instruction
system.cpu1.op_class::IntDiv                        0      0.00%     63.64% # Class of executed instruction
system.cpu1.op_class::FloatAdd                      2      9.09%     72.73% # Class of executed instruction
system.cpu1.op_class::FloatCmp                      0      0.00%     72.73% # Class of executed instruction
system.cpu1.op_class::FloatCvt                      0      0.00%     72.73% # Class of executed instruction
system.cpu1.op_class::FloatMult                     0      0.00%     72.73% # Class of executed instruction
system.cpu1.op_class::FloatMultAcc                  0      0.00%     72.73% # Class of executed instruction
system.cpu1.op_class::FloatDiv                      0      0.00%     72.73% # Class of executed instruction
system.cpu1.op_class::FloatMisc                     0      0.00%     72.73% # Class of executed instruction
system.cpu1.op_class::FloatSqrt                     0      0.00%     72.73% # Class of executed instruction
system.cpu1.op_class::SimdAdd                       0      0.00%     72.73% # Class of executed instruction
system.cpu1.op_class::SimdAddAcc                    0      0.00%     72.73% # Class of executed instruction
system.cpu1.op_class::SimdAlu                       0      0.00%     72.73% # Class of executed instruction
system.cpu1.op_class::SimdCmp                       0      0.00%     72.73% # Class of executed instruction
system.cpu1.op_class::SimdCvt                       0      0.00%     72.73% # Class of executed instruction
system.cpu1.op_class::SimdMisc                      1      4.55%     77.27% # Class of executed instruction
system.cpu1.op_class::SimdMult                      0      0.00%     77.27% # Class of executed instruction
system.cpu1.op_class::SimdMultAcc                   0      0.00%     77.27% # Class of executed instruction
system.cpu1.op_class::SimdShift                     0      0.00%     77.27% # Class of executed instruction
system.cpu1.op_class::SimdShiftAcc                  0      0.00%     77.27% # Class of executed instruction
system.cpu1.op_class::SimdDiv                       0      0.00%     77.27% # Class of executed instruction
system.cpu1.op_class::SimdSqrt                      0      0.00%     77.27% # Class of executed instruction
system.cpu1.op_class::SimdFloatAdd                  1      4.55%     81.82% # Class of executed instruction
system.cpu1.op_class::SimdFloatAlu                  0      0.00%     81.82% # Class of executed instruction
system.cpu1.op_class::SimdFloatCmp                  0      0.00%     81.82% # Class of executed instruction
system.cpu1.op_class::SimdFloatCvt                  0      0.00%     81.82% # Class of executed instruction
system.cpu1.op_class::SimdFloatDiv                  0      0.00%     81.82% # Class of executed instruction
system.cpu1.op_class::SimdFloatMisc                 0      0.00%     81.82% # Class of executed instruction
system.cpu1.op_class::SimdFloatMult                 0      0.00%     81.82% # Class of executed instruction
system.cpu1.op_class::SimdFloatMultAcc              0      0.00%     81.82% # Class of executed instruction
system.cpu1.op_class::SimdFloatSqrt                 0      0.00%     81.82% # Class of executed instruction
system.cpu1.op_class::SimdReduceAdd                 0      0.00%     81.82% # Class of executed instruction
system.cpu1.op_class::SimdReduceAlu                 0      0.00%     81.82% # Class of executed instruction
system.cpu1.op_class::SimdReduceCmp                 0      0.00%     81.82% # Class of executed instruction
system.cpu1.op_class::SimdFloatReduceAdd            0      0.00%     81.82% # Class of executed instruction
system.cpu1.op_class::SimdFloatReduceCmp            0      0.00%     81.82% # Class of executed instruction
system.cpu1.op_class::SimdAes                       0      0.00%     81.82% # Class of executed instruction
system.cpu1.op_class::SimdAesMix                    0      0.00%     81.82% # Class of executed instruction
system.cpu1.op_class::SimdSha1Hash                  0      0.00%     81.82% # Class of executed instruction
system.cpu1.op_class::SimdSha1Hash2                 0      0.00%     81.82% # Class of executed instruction
system.cpu1.op_class::SimdSha256Hash                0      0.00%     81.82% # Class of executed instruction
system.cpu1.op_class::SimdSha256Hash2               0      0.00%     81.82% # Class of executed instruction
system.cpu1.op_class::SimdShaSigma2                 0      0.00%     81.82% # Class of executed instruction
system.cpu1.op_class::SimdShaSigma3                 0      0.00%     81.82% # Class of executed instruction
system.cpu1.op_class::SimdPredAlu                   0      0.00%     81.82% # Class of executed instruction
system.cpu1.op_class::MemRead                       0      0.00%     81.82% # Class of executed instruction
system.cpu1.op_class::MemWrite                      2      9.09%     90.91% # Class of executed instruction
system.cpu1.op_class::FloatMemRead                  2      9.09%    100.00% # Class of executed instruction
system.cpu1.op_class::FloatMemWrite                 0      0.00%    100.00% # Class of executed instruction
system.cpu1.op_class::IprAccess                     0      0.00%    100.00% # Class of executed instruction
system.cpu1.op_class::InstPrefetch                  0      0.00%    100.00% # Class of executed instruction
system.cpu1.op_class::total                        22                       # Class of executed instruction
system.cpu1.workload.numSyscalls                    0                       # Number of system calls
system.cpu2.Branches                                1                       # Number of branches fetched
system.cpu2.committedInsts                         16                       # Number of instructions committed
system.cpu2.committedOps                           25                       # Number of ops (including micro ops) committed
system.cpu2.idle_fraction                           0                       # Percentage of idle cycles
system.cpu2.l2bus.snoop_filter.hit_multi_requests            3                       # Number of requests hitting in the snoop filter with multiple (>1) holders of the requested data.
system.cpu2.l2bus.snoop_filter.hit_multi_snoops            0                       # Number of snoops hitting in the snoop filter with multiple (>1) holders of the requested data.
system.cpu2.l2bus.snoop_filter.hit_single_requests      2529372                       # Number of requests hitting in the snoop filter with a single holder of the requested data.
system.cpu2.l2bus.snoop_filter.hit_single_snoops          208                       # Number of snoops hitting in the snoop filter with a single holder of the requested data.
system.cpu2.l2bus.snoop_filter.tot_requests      5059436                       # Total number of requests made to the snoop filter.
system.cpu2.l2bus.snoop_filter.tot_snoops          208                       # Total number of snoops made to the snoop filter.
system.cpu2.mmucache.mmubus.snoop_filter.hit_multi_requests            0                       # Number of requests hitting in the snoop filter with multiple (>1) holders of the requested data.
system.cpu2.mmucache.mmubus.snoop_filter.hit_multi_snoops            0                       # Number of snoops hitting in the snoop filter with multiple (>1) holders of the requested data.
system.cpu2.mmucache.mmubus.snoop_filter.hit_single_requests            0                       # Number of requests hitting in the snoop filter with a single holder of the requested data.
system.cpu2.mmucache.mmubus.snoop_filter.hit_single_snoops            0                       # Number of snoops hitting in the snoop filter with a single holder of the requested data.
system.cpu2.mmucache.mmubus.snoop_filter.tot_requests            0                       # Total number of requests made to the snoop filter.
system.cpu2.mmucache.mmubus.snoop_filter.tot_snoops            0                       # Total number of snoops made to the snoop filter.
system.cpu2.not_idle_fraction                       1                       # Percentage of non-idle cycles
system.cpu2.numCycles                              31                       # number of cpu cycles simulated
system.cpu2.numWorkItemsCompleted                   0                       # number of work items this cpu completed
system.cpu2.numWorkItemsStarted                     0                       # number of work items this cpu started
system.cpu2.num_busy_cycles                        31                       # Number of busy cycles
system.cpu2.num_cc_register_reads                   5                       # number of times the CC registers were read
system.cpu2.num_cc_register_writes                  4                       # number of times the CC registers were written
system.cpu2.num_conditional_control_insts            1                       # number of instructions that are conditional controls
system.cpu2.num_fp_alu_accesses                    14                       # Number of float alu accesses
system.cpu2.num_fp_insts                           14                       # number of float instructions
system.cpu2.num_fp_register_reads                  33                       # number of times the floating registers were read
system.cpu2.num_fp_register_writes                 14                       # number of times the floating registers were written
system.cpu2.num_func_calls                          0                       # number of times a function call or return occured
system.cpu2.num_idle_cycles                         0                       # Number of idle cycles
system.cpu2.num_int_alu_accesses                   14                       # Number of integer alu accesses
system.cpu2.num_int_insts                          14                       # number of integer instructions
system.cpu2.num_int_register_reads                 21                       # number of times the integer registers were read
system.cpu2.num_int_register_writes                10                       # number of times the integer registers were written
system.cpu2.num_load_insts                          2                       # Number of load instructions
system.cpu2.num_mem_refs                            2                       # number of memory refs
system.cpu2.num_store_insts                         0                       # Number of store instructions
system.cpu2.num_vec_alu_accesses                    0                       # Number of vector alu accesses
system.cpu2.num_vec_insts                           0                       # number of vector instructions
system.cpu2.num_vec_register_reads                  0                       # number of times the vector registers were read
system.cpu2.num_vec_register_writes                 0                       # number of times the vector registers were written
system.cpu2.op_class::No_OpClass                    0      0.00%      0.00% # Class of executed instruction
system.cpu2.op_class::IntAlu                        9     36.00%     36.00% # Class of executed instruction
system.cpu2.op_class::IntMult                       0      0.00%     36.00% # Class of executed instruction
system.cpu2.op_class::IntDiv                        0      0.00%     36.00% # Class of executed instruction
system.cpu2.op_class::FloatAdd                      0      0.00%     36.00% # Class of executed instruction
system.cpu2.op_class::FloatCmp                      0      0.00%     36.00% # Class of executed instruction
system.cpu2.op_class::FloatCvt                      0      0.00%     36.00% # Class of executed instruction
system.cpu2.op_class::FloatMult                     0      0.00%     36.00% # Class of executed instruction
system.cpu2.op_class::FloatMultAcc                  0      0.00%     36.00% # Class of executed instruction
system.cpu2.op_class::FloatDiv                      0      0.00%     36.00% # Class of executed instruction
system.cpu2.op_class::FloatMisc                     0      0.00%     36.00% # Class of executed instruction
system.cpu2.op_class::FloatSqrt                     0      0.00%     36.00% # Class of executed instruction
system.cpu2.op_class::SimdAdd                       0      0.00%     36.00% # Class of executed instruction
system.cpu2.op_class::SimdAddAcc                    0      0.00%     36.00% # Class of executed instruction
system.cpu2.op_class::SimdAlu                       0      0.00%     36.00% # Class of executed instruction
system.cpu2.op_class::SimdCmp                       0      0.00%     36.00% # Class of executed instruction
system.cpu2.op_class::SimdCvt                       0      0.00%     36.00% # Class of executed instruction
system.cpu2.op_class::SimdMisc                      3     12.00%     48.00% # Class of executed instruction
system.cpu2.op_class::SimdMult                      0      0.00%     48.00% # Class of executed instruction
system.cpu2.op_class::SimdMultAcc                   0      0.00%     48.00% # Class of executed instruction
system.cpu2.op_class::SimdShift                     0      0.00%     48.00% # Class of executed instruction
system.cpu2.op_class::SimdShiftAcc                  0      0.00%     48.00% # Class of executed instruction
system.cpu2.op_class::SimdDiv                       0      0.00%     48.00% # Class of executed instruction
system.cpu2.op_class::SimdSqrt                      0      0.00%     48.00% # Class of executed instruction
system.cpu2.op_class::SimdFloatAdd                  4     16.00%     64.00% # Class of executed instruction
system.cpu2.op_class::SimdFloatAlu                  0      0.00%     64.00% # Class of executed instruction
system.cpu2.op_class::SimdFloatCmp                  0      0.00%     64.00% # Class of executed instruction
system.cpu2.op_class::SimdFloatCvt                  3     12.00%     76.00% # Class of executed instruction
system.cpu2.op_class::SimdFloatDiv                  0      0.00%     76.00% # Class of executed instruction
system.cpu2.op_class::SimdFloatMisc                 0      0.00%     76.00% # Class of executed instruction
system.cpu2.op_class::SimdFloatMult                 4     16.00%     92.00% # Class of executed instruction
system.cpu2.op_class::SimdFloatMultAcc              0      0.00%     92.00% # Class of executed instruction
system.cpu2.op_class::SimdFloatSqrt                 0      0.00%     92.00% # Class of executed instruction
system.cpu2.op_class::SimdReduceAdd                 0      0.00%     92.00% # Class of executed instruction
system.cpu2.op_class::SimdReduceAlu                 0      0.00%     92.00% # Class of executed instruction
system.cpu2.op_class::SimdReduceCmp                 0      0.00%     92.00% # Class of executed instruction
system.cpu2.op_class::SimdFloatReduceAdd            0      0.00%     92.00% # Class of executed instruction
system.cpu2.op_class::SimdFloatReduceCmp            0      0.00%     92.00% # Class of executed instruction
system.cpu2.op_class::SimdAes                       0      0.00%     92.00% # Class of executed instruction
system.cpu2.op_class::SimdAesMix                    0      0.00%     92.00% # Class of executed instruction
system.cpu2.op_class::SimdSha1Hash                  0      0.00%     92.00% # Class of executed instruction
system.cpu2.op_class::SimdSha1Hash2                 0      0.00%     92.00% # Class of executed instruction
system.cpu2.op_class::SimdSha256Hash                0      0.00%     92.00% # Class of executed instruction
system.cpu2.op_class::SimdSha256Hash2               0      0.00%     92.00% # Class of executed instruction
system.cpu2.op_class::SimdShaSigma2                 0      0.00%     92.00% # Class of executed instruction
system.cpu2.op_class::SimdShaSigma3                 0      0.00%     92.00% # Class of executed instruction
system.cpu2.op_class::SimdPredAlu                   0      0.00%     92.00% # Class of executed instruction
system.cpu2.op_class::MemRead                       2      8.00%    100.00% # Class of executed instruction
system.cpu2.op_class::MemWrite                      0      0.00%    100.00% # Class of executed instruction
system.cpu2.op_class::FloatMemRead                  0      0.00%    100.00% # Class of executed instruction
system.cpu2.op_class::FloatMemWrite                 0      0.00%    100.00% # Class of executed instruction
system.cpu2.op_class::IprAccess                     0      0.00%    100.00% # Class of executed instruction
system.cpu2.op_class::InstPrefetch                  0      0.00%    100.00% # Class of executed instruction
system.cpu2.op_class::total                        25                       # Class of executed instruction
system.cpu2.workload.numSyscalls                    0                       # Number of system calls
system.cpu3.Branches                                1                       # Number of branches fetched
system.cpu3.committedInsts                         11                       # Number of instructions committed
system.cpu3.committedOps                           23                       # Number of ops (including micro ops) committed
system.cpu3.idle_fraction                           0                       # Percentage of idle cycles
system.cpu3.l2bus.snoop_filter.hit_multi_requests           28                       # Number of requests hitting in the snoop filter with multiple (>1) holders of the requested data.
system.cpu3.l2bus.snoop_filter.hit_multi_snoops            0                       # Number of snoops hitting in the snoop filter with multiple (>1) holders of the requested data.
system.cpu3.l2bus.snoop_filter.hit_single_requests        84852                       # Number of requests hitting in the snoop filter with a single holder of the requested data.
system.cpu3.l2bus.snoop_filter.hit_single_snoops          348                       # Number of snoops hitting in the snoop filter with a single holder of the requested data.
system.cpu3.l2bus.snoop_filter.tot_requests       170493                       # Total number of requests made to the snoop filter.
system.cpu3.l2bus.snoop_filter.tot_snoops          348                       # Total number of snoops made to the snoop filter.
system.cpu3.mmucache.mmubus.snoop_filter.hit_multi_requests            0                       # Number of requests hitting in the snoop filter with multiple (>1) holders of the requested data.
system.cpu3.mmucache.mmubus.snoop_filter.hit_multi_snoops            0                       # Number of snoops hitting in the snoop filter with multiple (>1) holders of the requested data.
system.cpu3.mmucache.mmubus.snoop_filter.hit_single_requests            0                       # Number of requests hitting in the snoop filter with a single holder of the requested data.
system.cpu3.mmucache.mmubus.snoop_filter.hit_single_snoops            0                       # Number of snoops hitting in the snoop filter with a single holder of the requested data.
system.cpu3.mmucache.mmubus.snoop_filter.tot_requests            0                       # Total number of requests made to the snoop filter.
system.cpu3.mmucache.mmubus.snoop_filter.tot_snoops            0                       # Total number of snoops made to the snoop filter.
system.cpu3.not_idle_fraction                       1                       # Percentage of non-idle cycles
system.cpu3.numCycles                              31                       # number of cpu cycles simulated
system.cpu3.numWorkItemsCompleted                   0                       # number of work items this cpu completed
system.cpu3.numWorkItemsStarted                     0                       # number of work items this cpu started
system.cpu3.num_busy_cycles                        31                       # Number of busy cycles
system.cpu3.num_cc_register_reads                   5                       # number of times the CC registers were read
system.cpu3.num_cc_register_writes                  4                       # number of times the CC registers were written
system.cpu3.num_conditional_control_insts            1                       # number of instructions that are conditional controls
system.cpu3.num_fp_alu_accesses                    12                       # Number of float alu accesses
system.cpu3.num_fp_insts                           12                       # number of float instructions
system.cpu3.num_fp_register_reads                   4                       # number of times the floating registers were read
system.cpu3.num_fp_register_writes                  8                       # number of times the floating registers were written
system.cpu3.num_func_calls                          0                       # number of times a function call or return occured
system.cpu3.num_idle_cycles                         0                       # Number of idle cycles
system.cpu3.num_int_alu_accesses                   23                       # Number of integer alu accesses
system.cpu3.num_int_insts                          23                       # number of integer instructions
system.cpu3.num_int_register_reads                 58                       # number of times the integer registers were read
system.cpu3.num_int_register_writes                 8                       # number of times the integer registers were written
system.cpu3.num_load_insts                         10                       # Number of load instructions
system.cpu3.num_mem_refs                           16                       # number of memory refs
system.cpu3.num_store_insts                         6                       # Number of store instructions
system.cpu3.num_vec_alu_accesses                    0                       # Number of vector alu accesses
system.cpu3.num_vec_insts                           0                       # number of vector instructions
system.cpu3.num_vec_register_reads                  0                       # number of times the vector registers were read
system.cpu3.num_vec_register_writes                 0                       # number of times the vector registers were written
system.cpu3.op_class::No_OpClass                    2      8.00%      8.00% # Class of executed instruction
system.cpu3.op_class::IntAlu                        7     28.00%     36.00% # Class of executed instruction
system.cpu3.op_class::IntMult                       0      0.00%     36.00% # Class of executed instruction
system.cpu3.op_class::IntDiv                        0      0.00%     36.00% # Class of executed instruction
system.cpu3.op_class::FloatAdd                      0      0.00%     36.00% # Class of executed instruction
system.cpu3.op_class::FloatCmp                      0      0.00%     36.00% # Class of executed instruction
system.cpu3.op_class::FloatCvt                      0      0.00%     36.00% # Class of executed instruction
system.cpu3.op_class::FloatMult                     0      0.00%     36.00% # Class of executed instruction
system.cpu3.op_class::FloatMultAcc                  0      0.00%     36.00% # Class of executed instruction
system.cpu3.op_class::FloatDiv                      0      0.00%     36.00% # Class of executed instruction
system.cpu3.op_class::FloatMisc                     0      0.00%     36.00% # Class of executed instruction
system.cpu3.op_class::FloatSqrt                     0      0.00%     36.00% # Class of executed instruction
system.cpu3.op_class::SimdAdd                       0      0.00%     36.00% # Class of executed instruction
system.cpu3.op_class::SimdAddAcc                    0      0.00%     36.00% # Class of executed instruction
system.cpu3.op_class::SimdAlu                       0      0.00%     36.00% # Class of executed instruction
system.cpu3.op_class::SimdCmp                       0      0.00%     36.00% # Class of executed instruction
system.cpu3.op_class::SimdCvt                       0      0.00%     36.00% # Class of executed instruction
system.cpu3.op_class::SimdMisc                      0      0.00%     36.00% # Class of executed instruction
system.cpu3.op_class::SimdMult                      0      0.00%     36.00% # Class of executed instruction
system.cpu3.op_class::SimdMultAcc                   0      0.00%     36.00% # Class of executed instruction
system.cpu3.op_class::SimdShift                     0      0.00%     36.00% # Class of executed instruction
system.cpu3.op_class::SimdShiftAcc                  0      0.00%     36.00% # Class of executed instruction
system.cpu3.op_class::SimdDiv                       0      0.00%     36.00% # Class of executed instruction
system.cpu3.op_class::SimdSqrt                      0      0.00%     36.00% # Class of executed instruction
system.cpu3.op_class::SimdFloatAdd                  0      0.00%     36.00% # Class of executed instruction
system.cpu3.op_class::SimdFloatAlu                  0      0.00%     36.00% # Class of executed instruction
system.cpu3.op_class::SimdFloatCmp                  0      0.00%     36.00% # Class of executed instruction
system.cpu3.op_class::SimdFloatCvt                  0      0.00%     36.00% # Class of executed instruction
system.cpu3.op_class::SimdFloatDiv                  0      0.00%     36.00% # Class of executed instruction
system.cpu3.op_class::SimdFloatMisc                 0      0.00%     36.00% # Class of executed instruction
system.cpu3.op_class::SimdFloatMult                 0      0.00%     36.00% # Class of executed instruction
system.cpu3.op_class::SimdFloatMultAcc              0      0.00%     36.00% # Class of executed instruction
system.cpu3.op_class::SimdFloatSqrt                 0      0.00%     36.00% # Class of executed instruction
system.cpu3.op_class::SimdReduceAdd                 0      0.00%     36.00% # Class of executed instruction
system.cpu3.op_class::SimdReduceAlu                 0      0.00%     36.00% # Class of executed instruction
system.cpu3.op_class::SimdReduceCmp                 0      0.00%     36.00% # Class of executed instruction
system.cpu3.op_class::SimdFloatReduceAdd            0      0.00%     36.00% # Class of executed instruction
system.cpu3.op_class::SimdFloatReduceCmp            0      0.00%     36.00% # Class of executed instruction
system.cpu3.op_class::SimdAes                       0      0.00%     36.00% # Class of executed instruction
system.cpu3.op_class::SimdAesMix                    0      0.00%     36.00% # Class of executed instruction
system.cpu3.op_class::SimdSha1Hash                  0      0.00%     36.00% # Class of executed instruction
system.cpu3.op_class::SimdSha1Hash2                 0      0.00%     36.00% # Class of executed instruction
system.cpu3.op_class::SimdSha256Hash                0      0.00%     36.00% # Class of executed instruction
system.cpu3.op_class::SimdSha256Hash2               0      0.00%     36.00% # Class of executed instruction
system.cpu3.op_class::SimdShaSigma2                 0      0.00%     36.00% # Class of executed instruction
system.cpu3.op_class::SimdShaSigma3                 0      0.00%     36.00% # Class of executed instruction
system.cpu3.op_class::SimdPredAlu                   0      0.00%     36.00% # Class of executed instruction
system.cpu3.op_class::MemRead                       2      8.00%     44.00% # Class of executed instruction
system.cpu3.op_class::MemWrite                      2      8.00%     52.00% # Class of executed instruction
system.cpu3.op_class::FloatMemRead                  8     32.00%     84.00% # Class of executed instruction
system.cpu3.op_class::FloatMemWrite                 4     16.00%    100.00% # Class of executed instruction
system.cpu3.op_class::IprAccess                     0      0.00%    100.00% # Class of executed instruction
system.cpu3.op_class::InstPrefetch                  0      0.00%    100.00% # Class of executed instruction
system.cpu3.op_class::total                        25                       # Class of executed instruction
system.cpu3.workload.numSyscalls                    0                       # Number of system calls
system.l3bus.snoop_filter.hit_multi_requests            0                       # Number of requests hitting in the snoop filter with multiple (>1) holders of the requested data.
system.l3bus.snoop_filter.hit_multi_snoops            0                       # Number of snoops hitting in the snoop filter with multiple (>1) holders of the requested data.
system.l3bus.snoop_filter.hit_single_requests       200906                       # Number of requests hitting in the snoop filter with a single holder of the requested data.
system.l3bus.snoop_filter.hit_single_snoops            0                       # Number of snoops hitting in the snoop filter with a single holder of the requested data.
system.l3bus.snoop_filter.tot_requests         415814                       # Total number of requests made to the snoop filter.
system.l3bus.snoop_filter.tot_snoops                0                       # Total number of snoops made to the snoop filter.
system.membus.snoop_filter.hit_multi_requests            0                       # Number of requests hitting in the snoop filter with multiple (>1) holders of the requested data.
system.membus.snoop_filter.hit_multi_snoops            0                       # Number of snoops hitting in the snoop filter with multiple (>1) holders of the requested data.
system.membus.snoop_filter.hit_single_requests        96815                       # Number of requests hitting in the snoop filter with a single holder of the requested data.
system.membus.snoop_filter.hit_single_snoops            0                       # Number of snoops hitting in the snoop filter with a single holder of the requested data.
system.membus.snoop_filter.tot_requests        272847                       # Total number of requests made to the snoop filter.
system.membus.snoop_filter.tot_snoops               0                       # Total number of snoops made to the snoop filter.
system.switch_cpus0.cc_regfile_reads        146489833                       # number of cc regfile reads
system.switch_cpus0.cc_regfile_writes       151847998                       # number of cc regfile writes
system.switch_cpus0.committedInsts          157350273                       # Number of Instructions Simulated
system.switch_cpus0.committedOps            309355896                       # Number of Ops (including micro ops) Simulated
system.switch_cpus0.cpi                      0.537867                       # CPI: Cycles Per Instruction
system.switch_cpus0.cpi_total                0.537867                       # CPI: Total CPI of All Threads
system.switch_cpus0.fp_regfile_reads                1                       # number of floating regfile reads
system.switch_cpus0.fp_regfile_writes              63                       # number of floating regfile writes
system.switch_cpus0.idleCycles                  73313                       # Total number of cycles that the CPU has spent unscheduled due to idling
system.switch_cpus0.iew.branchMispredicts      1606325                       # Number of branch mispredicts detected at execute
system.switch_cpus0.iew.exec_branches        28955186                       # Number of branches executed
system.switch_cpus0.iew.exec_nop                    0                       # number of nop insts executed
system.switch_cpus0.iew.exec_rate            4.295642                       # Inst execution rate
system.switch_cpus0.iew.exec_refs           107522638                       # number of memory reference insts executed
system.switch_cpus0.iew.exec_stores          29101112                       # Number of stores executed
system.switch_cpus0.iew.exec_swp                    0                       # number of swp insts executed
system.switch_cpus0.iew.iewBlockCycles        9810521                       # Number of cycles IEW is blocking
system.switch_cpus0.iew.iewDispLoadInsts     84737885                       # Number of dispatched load instructions
system.switch_cpus0.iew.iewDispNonSpecInsts            0                       # Number of dispatched non-speculative instructions
system.switch_cpus0.iew.iewDispSquashedInsts         8365                       # Number of squashed instructions skipped by dispatch
system.switch_cpus0.iew.iewDispStoreInsts     33452379                       # Number of dispatched store instructions
system.switch_cpus0.iew.iewDispatchedInsts    392621206                       # Number of instructions dispatched to IQ
system.switch_cpus0.iew.iewExecLoadInsts     78421526                       # Number of load instructions executed
system.switch_cpus0.iew.iewExecSquashedInsts      4569693                       # Number of squashed instructions skipped in execute
system.switch_cpus0.iew.iewExecutedInsts    363554958                       # Number of executed instructions
system.switch_cpus0.iew.iewIQFullEvents            32                       # Number of times the IQ has become full, causing a stall
system.switch_cpus0.iew.iewIdleCycles               0                       # Number of cycles IEW is idle
system.switch_cpus0.iew.iewLSQFullEvents         1528                       # Number of times the LSQ has become full, causing a stall
system.switch_cpus0.iew.iewSquashCycles       1326338                       # Number of cycles IEW is squashing
system.switch_cpus0.iew.iewUnblockCycles         1569                       # Number of cycles IEW is unblocking
system.switch_cpus0.iew.memOrderViolationEvents        22667                       # Number of memory order violations
system.switch_cpus0.iew.predictedNotTakenIncorrect       773136                       # Number of branches that were predicted not taken incorrectly
system.switch_cpus0.iew.predictedTakenIncorrect       833189                       # Number of branches that were predicted taken incorrectly
system.switch_cpus0.iew.wb_consumers        406669771                       # num instructions consuming a value
system.switch_cpus0.iew.wb_count            361401049                       # cumulative count of insts written-back
system.switch_cpus0.iew.wb_fanout            0.670892                       # average fanout of values written-back
system.switch_cpus0.iew.wb_producers        272831489                       # num instructions producing a value
system.switch_cpus0.iew.wb_rate              4.270192                       # insts written-back per cycle
system.switch_cpus0.iew.wb_sent             362841574                       # cumulative count of insts sent to commit
system.switch_cpus0.int_regfile_reads       525784792                       # number of integer regfile reads
system.switch_cpus0.int_regfile_writes      304789914                       # number of integer regfile writes
system.switch_cpus0.ipc                      1.859197                       # IPC: Instructions Per Cycle
system.switch_cpus0.ipc_total                1.859197                       # IPC: Total IPC of All Threads
system.switch_cpus0.iq.FU_type_0::No_OpClass       788891      0.21%      0.21% # Type of FU issued
system.switch_cpus0.iq.FU_type_0::IntAlu    255474835     69.40%     69.61% # Type of FU issued
system.switch_cpus0.iq.FU_type_0::IntMult      2145666      0.58%     70.20% # Type of FU issued
system.switch_cpus0.iq.FU_type_0::IntDiv            0      0.00%     70.20% # Type of FU issued
system.switch_cpus0.iq.FU_type_0::FloatAdd            0      0.00%     70.20% # Type of FU issued
system.switch_cpus0.iq.FU_type_0::FloatCmp            0      0.00%     70.20% # Type of FU issued
system.switch_cpus0.iq.FU_type_0::FloatCvt            0      0.00%     70.20% # Type of FU issued
system.switch_cpus0.iq.FU_type_0::FloatMult            0      0.00%     70.20% # Type of FU issued
system.switch_cpus0.iq.FU_type_0::FloatMultAcc            0      0.00%     70.20% # Type of FU issued
system.switch_cpus0.iq.FU_type_0::FloatDiv            0      0.00%     70.20% # Type of FU issued
system.switch_cpus0.iq.FU_type_0::FloatMisc            0      0.00%     70.20% # Type of FU issued
system.switch_cpus0.iq.FU_type_0::FloatSqrt            0      0.00%     70.20% # Type of FU issued
system.switch_cpus0.iq.FU_type_0::SimdAdd            0      0.00%     70.20% # Type of FU issued
system.switch_cpus0.iq.FU_type_0::SimdAddAcc            0      0.00%     70.20% # Type of FU issued
system.switch_cpus0.iq.FU_type_0::SimdAlu            0      0.00%     70.20% # Type of FU issued
system.switch_cpus0.iq.FU_type_0::SimdCmp            0      0.00%     70.20% # Type of FU issued
system.switch_cpus0.iq.FU_type_0::SimdCvt            0      0.00%     70.20% # Type of FU issued
system.switch_cpus0.iq.FU_type_0::SimdMisc            0      0.00%     70.20% # Type of FU issued
system.switch_cpus0.iq.FU_type_0::SimdMult            0      0.00%     70.20% # Type of FU issued
system.switch_cpus0.iq.FU_type_0::SimdMultAcc            0      0.00%     70.20% # Type of FU issued
system.switch_cpus0.iq.FU_type_0::SimdShift            0      0.00%     70.20% # Type of FU issued
system.switch_cpus0.iq.FU_type_0::SimdShiftAcc            0      0.00%     70.20% # Type of FU issued
system.switch_cpus0.iq.FU_type_0::SimdDiv            0      0.00%     70.20% # Type of FU issued
system.switch_cpus0.iq.FU_type_0::SimdSqrt            0      0.00%     70.20% # Type of FU issued
system.switch_cpus0.iq.FU_type_0::SimdFloatAdd            0      0.00%     70.20% # Type of FU issued
system.switch_cpus0.iq.FU_type_0::SimdFloatAlu            0      0.00%     70.20% # Type of FU issued
system.switch_cpus0.iq.FU_type_0::SimdFloatCmp            0      0.00%     70.20% # Type of FU issued
system.switch_cpus0.iq.FU_type_0::SimdFloatCvt            0      0.00%     70.20% # Type of FU issued
system.switch_cpus0.iq.FU_type_0::SimdFloatDiv            0      0.00%     70.20% # Type of FU issued
system.switch_cpus0.iq.FU_type_0::SimdFloatMisc            0      0.00%     70.20% # Type of FU issued
system.switch_cpus0.iq.FU_type_0::SimdFloatMult            0      0.00%     70.20% # Type of FU issued
system.switch_cpus0.iq.FU_type_0::SimdFloatMultAcc            0      0.00%     70.20% # Type of FU issued
system.switch_cpus0.iq.FU_type_0::SimdFloatSqrt            0      0.00%     70.20% # Type of FU issued
system.switch_cpus0.iq.FU_type_0::SimdReduceAdd            0      0.00%     70.20% # Type of FU issued
system.switch_cpus0.iq.FU_type_0::SimdReduceAlu            0      0.00%     70.20% # Type of FU issued
system.switch_cpus0.iq.FU_type_0::SimdReduceCmp            0      0.00%     70.20% # Type of FU issued
system.switch_cpus0.iq.FU_type_0::SimdFloatReduceAdd            0      0.00%     70.20% # Type of FU issued
system.switch_cpus0.iq.FU_type_0::SimdFloatReduceCmp            0      0.00%     70.20% # Type of FU issued
system.switch_cpus0.iq.FU_type_0::SimdAes            0      0.00%     70.20% # Type of FU issued
system.switch_cpus0.iq.FU_type_0::SimdAesMix            0      0.00%     70.20% # Type of FU issued
system.switch_cpus0.iq.FU_type_0::SimdSha1Hash            0      0.00%     70.20% # Type of FU issued
system.switch_cpus0.iq.FU_type_0::SimdSha1Hash2            0      0.00%     70.20% # Type of FU issued
system.switch_cpus0.iq.FU_type_0::SimdSha256Hash            0      0.00%     70.20% # Type of FU issued
system.switch_cpus0.iq.FU_type_0::SimdSha256Hash2            0      0.00%     70.20% # Type of FU issued
system.switch_cpus0.iq.FU_type_0::SimdShaSigma2            0      0.00%     70.20% # Type of FU issued
system.switch_cpus0.iq.FU_type_0::SimdShaSigma3            0      0.00%     70.20% # Type of FU issued
system.switch_cpus0.iq.FU_type_0::SimdPredAlu            0      0.00%     70.20% # Type of FU issued
system.switch_cpus0.iq.FU_type_0::MemRead     80084664     21.75%     91.95% # Type of FU issued
system.switch_cpus0.iq.FU_type_0::MemWrite     29630584      8.05%    100.00% # Type of FU issued
system.switch_cpus0.iq.FU_type_0::FloatMemRead            8      0.00%    100.00% # Type of FU issued
system.switch_cpus0.iq.FU_type_0::FloatMemWrite            3      0.00%    100.00% # Type of FU issued
system.switch_cpus0.iq.FU_type_0::IprAccess            0      0.00%    100.00% # Type of FU issued
system.switch_cpus0.iq.FU_type_0::InstPrefetch            0      0.00%    100.00% # Type of FU issued
system.switch_cpus0.iq.FU_type_0::total     368124651                       # Type of FU issued
system.switch_cpus0.iq.fp_alu_accesses             11                       # Number of floating point alu accesses
system.switch_cpus0.iq.fp_inst_queue_reads           22                       # Number of floating instruction queue reads
system.switch_cpus0.iq.fp_inst_queue_wakeup_accesses            8                       # Number of floating instruction queue wakeup accesses
system.switch_cpus0.iq.fp_inst_queue_writes           24                       # Number of floating instruction queue writes
system.switch_cpus0.iq.fu_busy_cnt           11189393                       # FU busy when requested
system.switch_cpus0.iq.fu_busy_rate          0.030396                       # FU busy rate (busy events/executed inst)
system.switch_cpus0.iq.fu_full::No_OpClass            0      0.00%      0.00% # attempts to use FU when none available
system.switch_cpus0.iq.fu_full::IntAlu        7050779     63.01%     63.01% # attempts to use FU when none available
system.switch_cpus0.iq.fu_full::IntMult             0      0.00%     63.01% # attempts to use FU when none available
system.switch_cpus0.iq.fu_full::IntDiv              0      0.00%     63.01% # attempts to use FU when none available
system.switch_cpus0.iq.fu_full::FloatAdd            0      0.00%     63.01% # attempts to use FU when none available
system.switch_cpus0.iq.fu_full::FloatCmp            0      0.00%     63.01% # attempts to use FU when none available
system.switch_cpus0.iq.fu_full::FloatCvt            0      0.00%     63.01% # attempts to use FU when none available
system.switch_cpus0.iq.fu_full::FloatMult            0      0.00%     63.01% # attempts to use FU when none available
system.switch_cpus0.iq.fu_full::FloatMultAcc            0      0.00%     63.01% # attempts to use FU when none available
system.switch_cpus0.iq.fu_full::FloatDiv            0      0.00%     63.01% # attempts to use FU when none available
system.switch_cpus0.iq.fu_full::FloatMisc            0      0.00%     63.01% # attempts to use FU when none available
system.switch_cpus0.iq.fu_full::FloatSqrt            0      0.00%     63.01% # attempts to use FU when none available
system.switch_cpus0.iq.fu_full::SimdAdd             0      0.00%     63.01% # attempts to use FU when none available
system.switch_cpus0.iq.fu_full::SimdAddAcc            0      0.00%     63.01% # attempts to use FU when none available
system.switch_cpus0.iq.fu_full::SimdAlu             0      0.00%     63.01% # attempts to use FU when none available
system.switch_cpus0.iq.fu_full::SimdCmp             0      0.00%     63.01% # attempts to use FU when none available
system.switch_cpus0.iq.fu_full::SimdCvt             0      0.00%     63.01% # attempts to use FU when none available
system.switch_cpus0.iq.fu_full::SimdMisc            0      0.00%     63.01% # attempts to use FU when none available
system.switch_cpus0.iq.fu_full::SimdMult            0      0.00%     63.01% # attempts to use FU when none available
system.switch_cpus0.iq.fu_full::SimdMultAcc            0      0.00%     63.01% # attempts to use FU when none available
system.switch_cpus0.iq.fu_full::SimdShift            0      0.00%     63.01% # attempts to use FU when none available
system.switch_cpus0.iq.fu_full::SimdShiftAcc            0      0.00%     63.01% # attempts to use FU when none available
system.switch_cpus0.iq.fu_full::SimdDiv             0      0.00%     63.01% # attempts to use FU when none available
system.switch_cpus0.iq.fu_full::SimdSqrt            0      0.00%     63.01% # attempts to use FU when none available
system.switch_cpus0.iq.fu_full::SimdFloatAdd            0      0.00%     63.01% # attempts to use FU when none available
system.switch_cpus0.iq.fu_full::SimdFloatAlu            0      0.00%     63.01% # attempts to use FU when none available
system.switch_cpus0.iq.fu_full::SimdFloatCmp            0      0.00%     63.01% # attempts to use FU when none available
system.switch_cpus0.iq.fu_full::SimdFloatCvt            0      0.00%     63.01% # attempts to use FU when none available
system.switch_cpus0.iq.fu_full::SimdFloatDiv            0      0.00%     63.01% # attempts to use FU when none available
system.switch_cpus0.iq.fu_full::SimdFloatMisc            0      0.00%     63.01% # attempts to use FU when none available
system.switch_cpus0.iq.fu_full::SimdFloatMult            0      0.00%     63.01% # attempts to use FU when none available
system.switch_cpus0.iq.fu_full::SimdFloatMultAcc            0      0.00%     63.01% # attempts to use FU when none available
system.switch_cpus0.iq.fu_full::SimdFloatSqrt            0      0.00%     63.01% # attempts to use FU when none available
system.switch_cpus0.iq.fu_full::SimdReduceAdd            0      0.00%     63.01% # attempts to use FU when none available
system.switch_cpus0.iq.fu_full::SimdReduceAlu            0      0.00%     63.01% # attempts to use FU when none available
system.switch_cpus0.iq.fu_full::SimdReduceCmp            0      0.00%     63.01% # attempts to use FU when none available
system.switch_cpus0.iq.fu_full::SimdFloatReduceAdd            0      0.00%     63.01% # attempts to use FU when none available
system.switch_cpus0.iq.fu_full::SimdFloatReduceCmp            0      0.00%     63.01% # attempts to use FU when none available
system.switch_cpus0.iq.fu_full::SimdAes             0      0.00%     63.01% # attempts to use FU when none available
system.switch_cpus0.iq.fu_full::SimdAesMix            0      0.00%     63.01% # attempts to use FU when none available
system.switch_cpus0.iq.fu_full::SimdSha1Hash            0      0.00%     63.01% # attempts to use FU when none available
system.switch_cpus0.iq.fu_full::SimdSha1Hash2            0      0.00%     63.01% # attempts to use FU when none available
system.switch_cpus0.iq.fu_full::SimdSha256Hash            0      0.00%     63.01% # attempts to use FU when none available
system.switch_cpus0.iq.fu_full::SimdSha256Hash2            0      0.00%     63.01% # attempts to use FU when none available
system.switch_cpus0.iq.fu_full::SimdShaSigma2            0      0.00%     63.01% # attempts to use FU when none available
system.switch_cpus0.iq.fu_full::SimdShaSigma3            0      0.00%     63.01% # attempts to use FU when none available
system.switch_cpus0.iq.fu_full::SimdPredAlu            0      0.00%     63.01% # attempts to use FU when none available
system.switch_cpus0.iq.fu_full::MemRead       3431259     30.67%     93.68% # attempts to use FU when none available
system.switch_cpus0.iq.fu_full::MemWrite       707355      6.32%    100.00% # attempts to use FU when none available
system.switch_cpus0.iq.fu_full::FloatMemRead            0      0.00%    100.00% # attempts to use FU when none available
system.switch_cpus0.iq.fu_full::FloatMemWrite            0      0.00%    100.00% # attempts to use FU when none available
system.switch_cpus0.iq.fu_full::IprAccess            0      0.00%    100.00% # attempts to use FU when none available
system.switch_cpus0.iq.fu_full::InstPrefetch            0      0.00%    100.00% # attempts to use FU when none available
system.switch_cpus0.iq.int_alu_accesses     378525142                       # Number of integer alu accesses
system.switch_cpus0.iq.int_inst_queue_reads    832825470                       # Number of integer instruction queue reads
system.switch_cpus0.iq.int_inst_queue_wakeup_accesses    361401041                       # Number of integer instruction queue wakeup accesses
system.switch_cpus0.iq.int_inst_queue_writes    475908473                       # Number of integer instruction queue writes
system.switch_cpus0.iq.iqInstsAdded         392621206                       # Number of instructions added to the IQ (excludes non-spec)
system.switch_cpus0.iq.iqInstsIssued        368124651                       # Number of instructions issued
system.switch_cpus0.iq.iqSquashedInstsExamined     83265292                       # Number of squashed instructions iterated over during squash; mainly for profiling
system.switch_cpus0.iq.iqSquashedInstsIssued       826667                       # Number of squashed instructions issued
system.switch_cpus0.iq.iqSquashedOperandsExamined    106422154                       # Number of squashed operands that are examined and possibly removed from graph
system.switch_cpus0.iq.issued_per_cycle::samples     84560130                       # Number of insts issued each cycle
system.switch_cpus0.iq.issued_per_cycle::mean     4.353407                       # Number of insts issued each cycle
system.switch_cpus0.iq.issued_per_cycle::stdev     2.812507                       # Number of insts issued each cycle
system.switch_cpus0.iq.issued_per_cycle::underflows            0      0.00%      0.00% # Number of insts issued each cycle
system.switch_cpus0.iq.issued_per_cycle::0     17457949     20.65%     20.65% # Number of insts issued each cycle
system.switch_cpus0.iq.issued_per_cycle::1      2422048      2.86%     23.51% # Number of insts issued each cycle
system.switch_cpus0.iq.issued_per_cycle::2      3549815      4.20%     27.71% # Number of insts issued each cycle
system.switch_cpus0.iq.issued_per_cycle::3      5703154      6.74%     34.45% # Number of insts issued each cycle
system.switch_cpus0.iq.issued_per_cycle::4      8377422      9.91%     44.36% # Number of insts issued each cycle
system.switch_cpus0.iq.issued_per_cycle::5      9439092     11.16%     55.52% # Number of insts issued each cycle
system.switch_cpus0.iq.issued_per_cycle::6     13944429     16.49%     72.01% # Number of insts issued each cycle
system.switch_cpus0.iq.issued_per_cycle::7     12207979     14.44%     86.45% # Number of insts issued each cycle
system.switch_cpus0.iq.issued_per_cycle::8     11458242     13.55%    100.00% # Number of insts issued each cycle
system.switch_cpus0.iq.issued_per_cycle::overflows            0      0.00%    100.00% # Number of insts issued each cycle
system.switch_cpus0.iq.issued_per_cycle::min_value            0                       # Number of insts issued each cycle
system.switch_cpus0.iq.issued_per_cycle::max_value            8                       # Number of insts issued each cycle
system.switch_cpus0.iq.issued_per_cycle::total     84560130                       # Number of insts issued each cycle
system.switch_cpus0.iq.rate                  4.349636                       # Inst issue rate
system.switch_cpus0.iq.vec_alu_accesses             0                       # Number of vector alu accesses
system.switch_cpus0.iq.vec_inst_queue_reads            0                       # Number of vector instruction queue reads
system.switch_cpus0.iq.vec_inst_queue_wakeup_accesses            0                       # Number of vector instruction queue wakeup accesses
system.switch_cpus0.iq.vec_inst_queue_writes            0                       # Number of vector instruction queue writes
system.switch_cpus0.memDep0.conflictingLoads     16918673                       # Number of conflicting loads.
system.switch_cpus0.memDep0.conflictingStores     10247017                       # Number of conflicting stores.
system.switch_cpus0.memDep0.insertedLoads     84737885                       # Number of loads inserted to the mem dependence unit.
system.switch_cpus0.memDep0.insertedStores     33452379                       # Number of stores inserted to the mem dependence unit.
system.switch_cpus0.misc_regfile_reads      174471203                       # number of misc regfile reads
system.switch_cpus0.misc_regfile_writes             1                       # number of misc regfile writes
system.switch_cpus0.numCycles                84633443                       # number of cpu cycles simulated
system.switch_cpus0.numWorkItemsCompleted            0                       # number of work items this cpu completed
system.switch_cpus0.numWorkItemsStarted             0                       # number of work items this cpu started
system.switch_cpus0.timesIdled                    303                       # Number of times that the entire CPU went into an idle state and unscheduled itself
system.switch_cpus1.cc_regfile_reads        111837336                       # number of cc regfile reads
system.switch_cpus1.cc_regfile_writes        75464881                       # number of cc regfile writes
system.switch_cpus1.committedInsts          226115231                       # Number of Instructions Simulated
system.switch_cpus1.committedOps            394965214                       # Number of Ops (including micro ops) Simulated
system.switch_cpus1.cpi                      0.374294                       # CPI: Cycles Per Instruction
system.switch_cpus1.cpi_total                0.374294                       # CPI: Total CPI of All Threads
system.switch_cpus1.fp_regfile_reads        311468837                       # number of floating regfile reads
system.switch_cpus1.fp_regfile_writes       170965344                       # number of floating regfile writes
system.switch_cpus1.idleCycles                 108701                       # Total number of cycles that the CPU has spent unscheduled due to idling
system.switch_cpus1.iew.branchMispredicts         3736                       # Number of branch mispredicts detected at execute
system.switch_cpus1.iew.exec_branches        24071470                       # Number of branches executed
system.switch_cpus1.iew.exec_nop                    0                       # number of nop insts executed
system.switch_cpus1.iew.exec_rate            4.668176                       # Inst execution rate
system.switch_cpus1.iew.exec_refs            79180577                       # number of memory reference insts executed
system.switch_cpus1.iew.exec_stores          21088474                       # Number of stores executed
system.switch_cpus1.iew.exec_swp                    0                       # number of swp insts executed
system.switch_cpus1.iew.iewBlockCycles         999937                       # Number of cycles IEW is blocking
system.switch_cpus1.iew.iewDispLoadInsts     58106007                       # Number of dispatched load instructions
system.switch_cpus1.iew.iewDispNonSpecInsts            3                       # Number of dispatched non-speculative instructions
system.switch_cpus1.iew.iewDispSquashedInsts          972                       # Number of squashed instructions skipped by dispatch
system.switch_cpus1.iew.iewDispStoreInsts     21102217                       # Number of dispatched store instructions
system.switch_cpus1.iew.iewDispatchedInsts    395181519                       # Number of instructions dispatched to IQ
system.switch_cpus1.iew.iewExecLoadInsts     58092103                       # Number of load instructions executed
system.switch_cpus1.iew.iewExecSquashedInsts        13969                       # Number of squashed instructions skipped in execute
system.switch_cpus1.iew.iewExecutedInsts    395084569                       # Number of executed instructions
system.switch_cpus1.iew.iewIQFullEvents          8620                       # Number of times the IQ has become full, causing a stall
system.switch_cpus1.iew.iewIdleCycles               0                       # Number of cycles IEW is idle
system.switch_cpus1.iew.iewLSQFullEvents      1445016                       # Number of times the LSQ has become full, causing a stall
system.switch_cpus1.iew.iewSquashCycles          5659                       # Number of cycles IEW is squashing
system.switch_cpus1.iew.iewUnblockCycles      1460937                       # Number of cycles IEW is unblocking
system.switch_cpus1.iew.memOrderViolationEvents         2438                       # Number of memory order violations
system.switch_cpus1.iew.predictedNotTakenIncorrect         2313                       # Number of branches that were predicted not taken incorrectly
system.switch_cpus1.iew.predictedTakenIncorrect         1423                       # Number of branches that were predicted taken incorrectly
system.switch_cpus1.iew.wb_consumers        522839685                       # num instructions consuming a value
system.switch_cpus1.iew.wb_count            395074778                       # cumulative count of insts written-back
system.switch_cpus1.iew.wb_fanout            0.577696                       # average fanout of values written-back
system.switch_cpus1.iew.wb_producers        302042364                       # num instructions producing a value
system.switch_cpus1.iew.wb_rate              4.668061                       # insts written-back per cycle
system.switch_cpus1.iew.wb_sent             395078604                       # cumulative count of insts sent to commit
system.switch_cpus1.int_regfile_reads       352941043                       # number of integer regfile reads
system.switch_cpus1.int_regfile_writes      172045712                       # number of integer regfile writes
system.switch_cpus1.ipc                      2.671696                       # IPC: Instructions Per Cycle
system.switch_cpus1.ipc_total                2.671696                       # IPC: Total IPC of All Threads
system.switch_cpus1.iq.FU_type_0::No_OpClass         4620      0.00%      0.00% # Type of FU issued
system.switch_cpus1.iq.FU_type_0::IntAlu    212159275     53.70%     53.70% # Type of FU issued
system.switch_cpus1.iq.FU_type_0::IntMult        13302      0.00%     53.70% # Type of FU issued
system.switch_cpus1.iq.FU_type_0::IntDiv            0      0.00%     53.70% # Type of FU issued
system.switch_cpus1.iq.FU_type_0::FloatAdd     18366878      4.65%     58.35% # Type of FU issued
system.switch_cpus1.iq.FU_type_0::FloatCmp            0      0.00%     58.35% # Type of FU issued
system.switch_cpus1.iq.FU_type_0::FloatCvt            0      0.00%     58.35% # Type of FU issued
system.switch_cpus1.iq.FU_type_0::FloatMult            0      0.00%     58.35% # Type of FU issued
system.switch_cpus1.iq.FU_type_0::FloatMultAcc            0      0.00%     58.35% # Type of FU issued
system.switch_cpus1.iq.FU_type_0::FloatDiv            0      0.00%     58.35% # Type of FU issued
system.switch_cpus1.iq.FU_type_0::FloatMisc            0      0.00%     58.35% # Type of FU issued
system.switch_cpus1.iq.FU_type_0::FloatSqrt            0      0.00%     58.35% # Type of FU issued
system.switch_cpus1.iq.FU_type_0::SimdAdd            0      0.00%     58.35% # Type of FU issued
system.switch_cpus1.iq.FU_type_0::SimdAddAcc            0      0.00%     58.35% # Type of FU issued
system.switch_cpus1.iq.FU_type_0::SimdAlu     11889608      3.01%     61.36% # Type of FU issued
system.switch_cpus1.iq.FU_type_0::SimdCmp            0      0.00%     61.36% # Type of FU issued
system.switch_cpus1.iq.FU_type_0::SimdCvt            0      0.00%     61.36% # Type of FU issued
system.switch_cpus1.iq.FU_type_0::SimdMisc      6894219      1.74%     63.11% # Type of FU issued
system.switch_cpus1.iq.FU_type_0::SimdMult            0      0.00%     63.11% # Type of FU issued
system.switch_cpus1.iq.FU_type_0::SimdMultAcc            0      0.00%     63.11% # Type of FU issued
system.switch_cpus1.iq.FU_type_0::SimdShift            0      0.00%     63.11% # Type of FU issued
system.switch_cpus1.iq.FU_type_0::SimdShiftAcc            0      0.00%     63.11% # Type of FU issued
system.switch_cpus1.iq.FU_type_0::SimdDiv            0      0.00%     63.11% # Type of FU issued
system.switch_cpus1.iq.FU_type_0::SimdSqrt            0      0.00%     63.11% # Type of FU issued
system.switch_cpus1.iq.FU_type_0::SimdFloatAdd     33464364      8.47%     71.58% # Type of FU issued
system.switch_cpus1.iq.FU_type_0::SimdFloatAlu            0      0.00%     71.58% # Type of FU issued
system.switch_cpus1.iq.FU_type_0::SimdFloatCmp       143185      0.04%     71.61% # Type of FU issued
system.switch_cpus1.iq.FU_type_0::SimdFloatCvt      7845691      1.99%     73.60% # Type of FU issued
system.switch_cpus1.iq.FU_type_0::SimdFloatDiv      2286731      0.58%     74.18% # Type of FU issued
system.switch_cpus1.iq.FU_type_0::SimdFloatMisc            0      0.00%     74.18% # Type of FU issued
system.switch_cpus1.iq.FU_type_0::SimdFloatMult     22620868      5.73%     79.90% # Type of FU issued
system.switch_cpus1.iq.FU_type_0::SimdFloatMultAcc            0      0.00%     79.90% # Type of FU issued
system.switch_cpus1.iq.FU_type_0::SimdFloatSqrt       222908      0.06%     79.96% # Type of FU issued
system.switch_cpus1.iq.FU_type_0::SimdReduceAdd            0      0.00%     79.96% # Type of FU issued
system.switch_cpus1.iq.FU_type_0::SimdReduceAlu            0      0.00%     79.96% # Type of FU issued
system.switch_cpus1.iq.FU_type_0::SimdReduceCmp            0      0.00%     79.96% # Type of FU issued
system.switch_cpus1.iq.FU_type_0::SimdFloatReduceAdd            0      0.00%     79.96% # Type of FU issued
system.switch_cpus1.iq.FU_type_0::SimdFloatReduceCmp            0      0.00%     79.96% # Type of FU issued
system.switch_cpus1.iq.FU_type_0::SimdAes            0      0.00%     79.96% # Type of FU issued
system.switch_cpus1.iq.FU_type_0::SimdAesMix            0      0.00%     79.96% # Type of FU issued
system.switch_cpus1.iq.FU_type_0::SimdSha1Hash            0      0.00%     79.96% # Type of FU issued
[...]
system.switch_cpus3.commit.numCommittedDist::0     28439150     39.56%     39.56% # Number of insts commited each cycle
system.switch_cpus3.commit.numCommittedDist::1     16788396     23.35%     62.91% # Number of insts commited each cycle
system.switch_cpus3.commit.numCommittedDist::2      3711589      5.16%     68.08% # Number of insts commited each cycle
system.switch_cpus3.commit.numCommittedDist::3      9536112     13.27%     81.34% # Number of insts commited each cycle
system.switch_cpus3.commit.numCommittedDist::4      3216567      4.47%     85.82% # Number of insts commited each cycle
system.switch_cpus3.commit.numCommittedDist::5      1771871      2.46%     88.28% # Number of insts commited each cycle
system.switch_cpus3.commit.numCommittedDist::6       776320      1.08%     89.36% # Number of insts commited each cycle
system.switch_cpus3.commit.numCommittedDist::7       681076      0.95%     90.31% # Number of insts commited each cycle
system.switch_cpus3.commit.numCommittedDist::8      6966885      9.69%    100.00% # Number of insts commited each cycle
system.switch_cpus3.commit.numCommittedDist::overflows            0      0.00%    100.00% # Number of insts commited each cycle
system.switch_cpus3.commit.numCommittedDist::min_value            0                       # Number of insts commited each cycle
system.switch_cpus3.commit.numCommittedDist::max_value            8                       # Number of insts commited each cycle
system.switch_cpus3.commit.numCommittedDist::total     71887966                       # Number of insts commited each cycle
system.switch_cpus3.commit.instsCommitted     96246978                       # Number of instructions committed
system.switch_cpus3.commit.opsCommitted     139706065                       # Number of ops (including micro ops) committed
system.switch_cpus3.commit.memRefs           20520694                       # Number of memory references committed
system.switch_cpus3.commit.loads             14316475                       # Number of loads committed
system.switch_cpus3.commit.amos                     0                       # Number of atomic instructions committed
system.switch_cpus3.commit.membars                  0                       # Number of memory barriers committed
system.switch_cpus3.commit.branches          11428692                       # Number of branches committed
system.switch_cpus3.commit.vector                   0                       # Number of committed Vector instructions.
system.switch_cpus3.commit.floating            502998                       # Number of committed floating point instructions.
system.switch_cpus3.commit.integer          139705535                       # Number of committed integer instructions.
system.switch_cpus3.commit.functionCalls        28124                       # Number of function calls committed.
system.switch_cpus3.commit.committedInstType_0::No_OpClass          245      0.00%      0.00% # Class of committed instruction
system.switch_cpus3.commit.committedInstType_0::IntAlu    115733002     82.84%     82.84% # Class of committed instruction
system.switch_cpus3.commit.committedInstType_0::IntMult      3452124      2.47%     85.31% # Class of committed instruction
system.switch_cpus3.commit.committedInstType_0::IntDiv            0      0.00%     85.31% # Class of committed instruction
system.switch_cpus3.commit.committedInstType_0::FloatAdd            0      0.00%     85.31% # Class of committed instruction
system.switch_cpus3.commit.committedInstType_0::FloatCmp            0      0.00%     85.31% # Class of committed instruction
system.switch_cpus3.commit.committedInstType_0::FloatCvt            0      0.00%     85.31% # Class of committed instruction
system.switch_cpus3.commit.committedInstType_0::FloatMult            0      0.00%     85.31% # Class of committed instruction
system.switch_cpus3.commit.committedInstType_0::FloatMultAcc            0      0.00%     85.31% # Class of committed instruction
system.switch_cpus3.commit.committedInstType_0::FloatDiv            0      0.00%     85.31% # Class of committed instruction
system.switch_cpus3.commit.committedInstType_0::FloatMisc            0      0.00%     85.31% # Class of committed instruction
system.switch_cpus3.commit.committedInstType_0::FloatSqrt            0      0.00%     85.31% # Class of committed instruction
system.switch_cpus3.commit.committedInstType_0::SimdAdd            0      0.00%     85.31% # Class of committed instruction
system.switch_cpus3.commit.committedInstType_0::SimdAddAcc            0      0.00%     85.31% # Class of committed instruction
system.switch_cpus3.commit.committedInstType_0::SimdAlu            0      0.00%     85.31% # Class of committed instruction
system.switch_cpus3.commit.committedInstType_0::SimdCmp            0      0.00%     85.31% # Class of committed instruction
system.switch_cpus3.commit.committedInstType_0::SimdCvt            0      0.00%     85.31% # Class of committed instruction
system.switch_cpus3.commit.committedInstType_0::SimdMisc            0      0.00%     85.31% # Class of committed instruction
system.switch_cpus3.commit.committedInstType_0::SimdMult            0      0.00%     85.31% # Class of committed instruction
system.switch_cpus3.commit.committedInstType_0::SimdMultAcc            0      0.00%     85.31% # Class of committed instruction
system.switch_cpus3.commit.committedInstType_0::SimdShift            0      0.00%     85.31% # Class of committed instruction
system.switch_cpus3.commit.committedInstType_0::SimdShiftAcc            0      0.00%     85.31% # Class of committed instruction
system.switch_cpus3.commit.committedInstType_0::SimdDiv            0      0.00%     85.31% # Class of committed instruction
system.switch_cpus3.commit.committedInstType_0::SimdSqrt            0      0.00%     85.31% # Class of committed instruction
system.switch_cpus3.commit.committedInstType_0::SimdFloatAdd            0      0.00%     85.31% # Class of committed instruction
system.switch_cpus3.commit.committedInstType_0::SimdFloatAlu            0      0.00%     85.31% # Class of committed instruction
system.switch_cpus3.commit.committedInstType_0::SimdFloatCmp            0      0.00%     85.31% # Class of committed instruction
system.switch_cpus3.commit.committedInstType_0::SimdFloatCvt            0      0.00%     85.31% # Class of committed instruction
system.switch_cpus3.commit.committedInstType_0::SimdFloatDiv            0      0.00%     85.31% # Class of committed instruction
system.switch_cpus3.commit.committedInstType_0::SimdFloatMisc            0      0.00%     85.31% # Class of committed instruction
system.switch_cpus3.commit.committedInstType_0::SimdFloatMult            0      0.00%     85.31% # Class of committed instruction
system.switch_cpus3.commit.committedInstType_0::SimdFloatMultAcc            0      0.00%     85.31% # Class of committed instruction
system.switch_cpus3.commit.committedInstType_0::SimdFloatSqrt            0      0.00%     85.31% # Class of committed instruction
system.switch_cpus3.commit.committedInstType_0::SimdReduceAdd            0      0.00%     85.31% # Class of committed instruction
system.switch_cpus3.commit.committedInstType_0::SimdReduceAlu            0      0.00%     85.31% # Class of committed instruction
system.switch_cpus3.commit.committedInstType_0::SimdReduceCmp            0      0.00%     85.31% # Class of committed instruction
system.switch_cpus3.commit.committedInstType_0::SimdFloatReduceAdd            0      0.00%     85.31% # Class of committed instruction
system.switch_cpus3.commit.committedInstType_0::SimdFloatReduceCmp            0      0.00%     85.31% # Class of committed instruction
system.switch_cpus3.commit.committedInstType_0::SimdAes            0      0.00%     85.31% # Class of committed instruction
system.switch_cpus3.commit.committedInstType_0::SimdAesMix            0      0.00%     85.31% # Class of committed instruction
system.switch_cpus3.commit.committedInstType_0::SimdSha1Hash            0      0.00%     85.31% # Class of committed instruction
system.switch_cpus3.commit.committedInstType_0::SimdSha1Hash2            0      0.00%     85.31% # Class of committed instruction
system.switch_cpus3.commit.committedInstType_0::SimdSha256Hash            0      0.00%     85.31% # Class of committed instruction
system.switch_cpus3.commit.committedInstType_0::SimdSha256Hash2            0      0.00%     85.31% # Class of committed instruction
system.switch_cpus3.commit.committedInstType_0::SimdShaSigma2            0      0.00%     85.31% # Class of committed instruction
system.switch_cpus3.commit.committedInstType_0::SimdShaSigma3            0      0.00%     85.31% # Class of committed instruction
system.switch_cpus3.commit.committedInstType_0::SimdPredAlu            0      0.00%     85.31% # Class of committed instruction
system.switch_cpus3.commit.committedInstType_0::MemRead     14064983     10.07%     95.38% # Class of committed instruction
system.switch_cpus3.commit.committedInstType_0::MemWrite      5952713      4.26%     99.64% # Class of committed instruction
system.switch_cpus3.commit.committedInstType_0::FloatMemRead       251492      0.18%     99.82% # Class of committed instruction
system.switch_cpus3.commit.committedInstType_0::FloatMemWrite       251506      0.18%    100.00% # Class of committed instruction
system.switch_cpus3.commit.committedInstType_0::IprAccess            0      0.00%    100.00% # Class of committed instruction
system.switch_cpus3.commit.committedInstType_0::InstPrefetch            0      0.00%    100.00% # Class of committed instruction
system.switch_cpus3.commit.committedInstType_0::total    139706065                       # Class of committed instruction
system.switch_cpus3.commit.commitEligibleSamples      6966885                       # number cycles where commit BW limit reached
system.switch_cpus3.decode.idleCycles         7265090                       # Number of cycles decode is idle
system.switch_cpus3.decode.blockedCycles     40584978                       # Number of cycles decode is blocked
system.switch_cpus3.decode.runCycles         23755132                       # Number of cycles decode is running
system.switch_cpus3.decode.unblockCycles     11701756                       # Number of cycles decode is unblocking
system.switch_cpus3.decode.squashCycles       1258671                       # Number of cycles decode is squashing
system.switch_cpus3.decode.branchResolved     14176512                       # Number of times decode resolved a  branch
system.switch_cpus3.decode.branchMispred         1660                       # Number of times decode detected a branch misprediction
system.switch_cpus3.decode.decodedInsts     256640283                       # Number of instructions handled by decode
system.switch_cpus3.decode.squashedInsts         4377                       # Number of squashed instructions handled by decode
system.switch_cpus3.dtb.rdAccesses           22959987                       # TLB accesses on read requests
system.switch_cpus3.dtb.wrAccesses           10267829                       # TLB accesses on write requests
system.switch_cpus3.dtb.rdMisses                13949                       # TLB misses on read requests
system.switch_cpus3.dtb.wrMisses                  685                       # TLB misses on write requests
system.switch_cpus3.dtb.walker.power_state.pwrStateResidencyTicks::UNDEFINED 14978629180863                       # Cumulative time (in ticks) in various power states
system.switch_cpus3.fetch.icacheStallCycles      1151281                       # Number of cycles fetch is stalled on an Icache miss
system.switch_cpus3.fetch.insts             195537608                       # Number of instructions fetch has processed
system.switch_cpus3.fetch.branches           22791844                       # Number of branches that fetch encountered
system.switch_cpus3.fetch.predictedBranches     15751032                       # Number of branches that fetch has predicted taken
system.switch_cpus3.fetch.cycles             82154002                       # Number of cycles fetch has run and was not squashing or blocked
system.switch_cpus3.fetch.squashCycles        2520632                       # Number of cycles fetch has spent squashing
system.switch_cpus3.fetch.miscStallCycles            4                       # Number of cycles fetch has spent waiting on interrupts,or bad addresses, or out of MSHRs
system.switch_cpus3.fetch.pendingTrapStallCycles           28                       # Number of stall cycles due to pending traps
system.switch_cpus3.fetch.cacheLines         26106589                       # Number of cache lines fetched
system.switch_cpus3.fetch.icacheSquashes          246                       # Number of outstanding Icache misses that were squashed
system.switch_cpus3.fetch.nisnDist::samples     84565631                       # Number of instructions fetched each cycle (Total)
system.switch_cpus3.fetch.nisnDist::mean     3.411168                       # Number of instructions fetched each cycle (Total)
system.switch_cpus3.fetch.nisnDist::stdev     3.358815                       # Number of instructions fetched each cycle (Total)
system.switch_cpus3.fetch.nisnDist::underflows            0      0.00%      0.00% # Number of instructions fetched each cycle (Total)
system.switch_cpus3.fetch.nisnDist::0        32087394     37.94%     37.94% # Number of instructions fetched each cycle (Total)
system.switch_cpus3.fetch.nisnDist::1         4824415      5.70%     43.65% # Number of instructions fetched each cycle (Total)
system.switch_cpus3.fetch.nisnDist::2         5633381      6.66%     50.31% # Number of instructions fetched each cycle (Total)
system.switch_cpus3.fetch.nisnDist::3         4246309      5.02%     55.33% # Number of instructions fetched each cycle (Total)
system.switch_cpus3.fetch.nisnDist::4         4530880      5.36%     60.69% # Number of instructions fetched each cycle (Total)
system.switch_cpus3.fetch.nisnDist::5         5409202      6.40%     67.09% # Number of instructions fetched each cycle (Total)
system.switch_cpus3.fetch.nisnDist::6         3219491      3.81%     70.89% # Number of instructions fetched each cycle (Total)
system.switch_cpus3.fetch.nisnDist::7         1765452      2.09%     72.98% # Number of instructions fetched each cycle (Total)
system.switch_cpus3.fetch.nisnDist::8        22849107     27.02%    100.00% # Number of instructions fetched each cycle (Total)
system.switch_cpus3.fetch.nisnDist::overflows            0      0.00%    100.00% # Number of instructions fetched each cycle (Total)
system.switch_cpus3.fetch.nisnDist::min_value            0                       # Number of instructions fetched each cycle (Total)
system.switch_cpus3.fetch.nisnDist::max_value            8                       # Number of instructions fetched each cycle (Total)
system.switch_cpus3.fetch.nisnDist::total     84565631                       # Number of instructions fetched each cycle (Total)
system.switch_cpus3.fetch.branchRate         0.269300                       # Number of branch fetches per cycle
system.switch_cpus3.fetch.rate               2.310402                       # Number of inst fetches per cycle
system.switch_cpus3.itb.rdAccesses                  0                       # TLB accesses on read requests
system.switch_cpus3.itb.wrAccesses           26106595                       # TLB accesses on write requests
system.switch_cpus3.itb.rdMisses                    0                       # TLB misses on read requests
system.switch_cpus3.itb.wrMisses                   24                       # TLB misses on write requests
system.switch_cpus3.itb.walker.power_state.pwrStateResidencyTicks::UNDEFINED 14978629180863                       # Cumulative time (in ticks) in various power states
system.switch_cpus3.lsq0.forwLoads            2759727                       # Number of loads that had data forwarded from stores
system.switch_cpus3.lsq0.squashedLoads       12513214                       # Number of loads squashed
system.switch_cpus3.lsq0.ignoredResponses         2443                       # Number of memory responses ignored because the instruction is squashed
system.switch_cpus3.lsq0.memOrderViolation         7868                       # Number of memory ordering violations
system.switch_cpus3.lsq0.squashedStores       8244519                       # Number of stores squashed
system.switch_cpus3.lsq0.rescheduledLoads            0                       # Number of loads that were rescheduled
system.switch_cpus3.lsq0.blockedByCache           143                       # Number of times an access to memory failed due to the cache being blocked
system.switch_cpus3.power_state.pwrStateResidencyTicks::OFF  28182998790                       # Cumulative time (in ticks) in various power states
system.switch_cpus3.rename.squashCycles       1258671                       # Number of cycles rename is squashing
system.switch_cpus3.rename.idleCycles        11894963                       # Number of cycles rename is idle
system.switch_cpus3.rename.blockCycles       18719168                       # Number of cycles rename is blocking
system.switch_cpus3.rename.serializeStallCycles            0                       # count of cycles rename stalledfor serializing inst
system.switch_cpus3.rename.runCycles         30621251                       # Number of cycles rename is running
system.switch_cpus3.rename.unblockCycles     22071574                       # Number of cycles rename is unblocking
system.switch_cpus3.rename.renamedInsts     249538879                       # Number of instructions processed by rename
system.switch_cpus3.rename.ROBFullEvents        13068                       # Number of times rename has blocked due to ROB full
system.switch_cpus3.rename.IQFullEvents      15788939                       # Number of times rename has blocked due to IQ full
system.switch_cpus3.rename.LQFullEvents         11570                       # Number of times rename has blocked due to LQ full
system.switch_cpus3.rename.SQFullEvents       4220840                       # Number of times rename has blocked due to SQ full
system.switch_cpus3.rename.renamedOperands    357664484                       # Number of destination operands rename has renamed
system.switch_cpus3.rename.lookups          640304926                       # Number of register rename lookups that rename has made
system.switch_cpus3.rename.intLookups       434121155                       # Number of integer rename lookups
system.switch_cpus3.rename.fpLookups          2560143                       # Number of floating rename lookups
system.switch_cpus3.rename.committedMaps    205668683                       # Number of HB maps that are committed
system.switch_cpus3.rename.undoneMaps       151995661                       # Number of HB maps that are undone due to squashing
system.switch_cpus3.rename.serializing              0                       # count of serializing insts renamed
system.switch_cpus3.rename.tempSerializing            0                       # count of temporary serializing insts renamed
system.switch_cpus3.rename.skidInsts         47801314                       # count of insts added to the skid buffer
system.switch_cpus3.rob.reads               300078355                       # The number of ROB reads
system.switch_cpus3.rob.writes              485664410                       # The number of ROB writes
system.switch_cpus3.thread0.numInsts         96246978                       # Number of Instructions committed
system.switch_cpus3.thread0.numOps          139706065                       # Number of Ops committed
system.switch_cpus3.thread0.numMemRefs              0                       # Number of Memory References
system.voltage_domain.voltage                       1                       # Voltage in Volts

---------- End Simulation Statistics   ----------
