
---------- Begin Simulation Statistics ----------
final_tick                               16607506270932                       # Number of ticks from beginning of simulation (restored from checkpoints and never reset)
host_inst_rate                                 125736                       # Simulator instruction rate (inst/s)
host_mem_usage                               17510892                       # Number of bytes of host memory used
host_op_rate                                   203258                       # Simulator op (including micro ops) rate (op/s)
host_seconds                                  7952.67                       # Real time elapsed on the host
host_tick_rate                                7685928                       # Simulator tick rate (ticks/s)
sim_freq                                 1000000000000                       # Frequency of simulated ticks
sim_insts                                   999936698                       # Number of instructions simulated
sim_ops                                    1616444665                       # Number of ops (including micro ops) simulated
sim_seconds                                  0.061124                       # Number of seconds simulated
sim_ticks                                 61123637511                       # Number of ticks simulated
system.cpu0.Branches                                2                       # Number of branches fetched
system.cpu0.committedInsts                         18                       # Number of instructions committed
system.cpu0.committedOps                           25                       # Number of ops (including micro ops) committed
system.cpu0.idle_fraction                           0                       # Percentage of idle cycles
system.cpu0.l2bus.snoop_filter.hit_multi_requests         1151                       # Number of requests hitting in the snoop filter with multiple (>1) holders of the requested data.
system.cpu0.l2bus.snoop_filter.hit_multi_snoops            0                       # Number of snoops hitting in the snoop filter with multiple (>1) holders of the requested data.
system.cpu0.l2bus.snoop_filter.hit_single_requests       543706                       # Number of requests hitting in the snoop filter with a single holder of the requested data.
system.cpu0.l2bus.snoop_filter.hit_single_snoops         4720                       # Number of snoops hitting in the snoop filter with a single holder of the requested data.
system.cpu0.l2bus.snoop_filter.tot_requests      1087696                       # Total number of requests made to the snoop filter.
system.cpu0.l2bus.snoop_filter.tot_snoops         4720                       # Total number of snoops made to the snoop filter.
system.cpu0.mmucache.mmubus.snoop_filter.hit_multi_requests            0                       # Number of requests hitting in the snoop filter with multiple (>1) holders of the requested data.
system.cpu0.mmucache.mmubus.snoop_filter.hit_multi_snoops            0                       # Number of snoops hitting in the snoop filter with multiple (>1) holders of the requested data.
system.cpu0.mmucache.mmubus.snoop_filter.hit_single_requests            0                       # Number of requests hitting in the snoop filter with a single holder of the requested data.
system.cpu0.mmucache.mmubus.snoop_filter.hit_single_snoops            0                       # Number of snoops hitting in the snoop filter with a single holder of the requested data.
system.cpu0.mmucache.mmubus.snoop_filter.tot_requests            0                       # Total number of requests made to the snoop filter.
system.cpu0.mmucache.mmubus.snoop_filter.tot_snoops            0                       # Total number of snoops made to the snoop filter.
system.cpu0.not_idle_fraction                       1                       # Percentage of non-idle cycles
system.cpu0.numCycles                              30                       # number of cpu cycles simulated
system.cpu0.numWorkItemsCompleted                   0                       # number of work items this cpu completed
system.cpu0.numWorkItemsStarted                     0                       # number of work items this cpu started
system.cpu0.num_busy_cycles                        30                       # Number of busy cycles
system.cpu0.num_cc_register_reads                  13                       # number of times the CC registers were read
system.cpu0.num_cc_register_writes                 18                       # number of times the CC registers were written
system.cpu0.num_conditional_control_insts            1                       # number of instructions that are conditional controls
system.cpu0.num_fp_alu_accesses                     0                       # Number of float alu accesses
system.cpu0.num_fp_insts                            0                       # number of float instructions
system.cpu0.num_fp_register_reads                   0                       # number of times the floating registers were read
system.cpu0.num_fp_register_writes                  0                       # number of times the floating registers were written
system.cpu0.num_func_calls                          0                       # number of times a function call or return occured
system.cpu0.num_idle_cycles                         0                       # Number of idle cycles
system.cpu0.num_int_alu_accesses                   25                       # Number of integer alu accesses
system.cpu0.num_int_insts                          25                       # number of integer instructions
system.cpu0.num_int_register_reads                 43                       # number of times the integer registers were read
system.cpu0.num_int_register_writes                23                       # number of times the integer registers were written
system.cpu0.num_load_insts                          4                       # Number of load instructions
system.cpu0.num_mem_refs                            4                       # number of memory refs
system.cpu0.num_store_insts                         0                       # Number of store instructions
system.cpu0.num_vec_alu_accesses                    0                       # Number of vector alu accesses
system.cpu0.num_vec_insts                           0                       # number of vector instructions
system.cpu0.num_vec_register_reads                  0                       # number of times the vector registers were read
system.cpu0.num_vec_register_writes                 0                       # number of times the vector registers were written
system.cpu0.op_class::No_OpClass                    0      0.00%      0.00% # Class of executed instruction
system.cpu0.op_class::IntAlu                       21     84.00%     84.00% # Class of executed instruction
system.cpu0.op_class::IntMult                       0      0.00%     84.00% # Class of executed instruction
system.cpu0.op_class::IntDiv                        0      0.00%     84.00% # Class of executed instruction
system.cpu0.op_class::FloatAdd                      0      0.00%     84.00% # Class of executed instruction
system.cpu0.op_class::FloatCmp                      0      0.00%     84.00% # Class of executed instruction
system.cpu0.op_class::FloatCvt                      0      0.00%     84.00% # Class of executed instruction
system.cpu0.op_class::FloatMult                     0      0.00%     84.00% # Class of executed instruction
system.cpu0.op_class::FloatMultAcc                  0      0.00%     84.00% # Class of executed instruction
system.cpu0.op_class::FloatDiv                      0      0.00%     84.00% # Class of executed instruction
system.cpu0.op_class::FloatMisc                     0      0.00%     84.00% # Class of executed instruction
system.cpu0.op_class::FloatSqrt                     0      0.00%     84.00% # Class of executed instruction
system.cpu0.op_class::SimdAdd                       0      0.00%     84.00% # Class of executed instruction
system.cpu0.op_class::SimdAddAcc                    0      0.00%     84.00% # Class of executed instruction
system.cpu0.op_class::SimdAlu                       0      0.00%     84.00% # Class of executed instruction
system.cpu0.op_class::SimdCmp                       0      0.00%     84.00% # Class of executed instruction
system.cpu0.op_class::SimdCvt                       0      0.00%     84.00% # Class of executed instruction
system.cpu0.op_class::SimdMisc                      0      0.00%     84.00% # Class of executed instruction
system.cpu0.op_class::SimdMult                      0      0.00%     84.00% # Class of executed instruction
system.cpu0.op_class::SimdMultAcc                   0      0.00%     84.00% # Class of executed instruction
system.cpu0.op_class::SimdShift                     0      0.00%     84.00% # Class of executed instruction
system.cpu0.op_class::SimdShiftAcc                  0      0.00%     84.00% # Class of executed instruction
system.cpu0.op_class::SimdDiv                       0      0.00%     84.00% # Class of executed instruction
system.cpu0.op_class::SimdSqrt                      0      0.00%     84.00% # Class of executed instruction
system.cpu0.op_class::SimdFloatAdd                  0      0.00%     84.00% # Class of executed instruction
system.cpu0.op_class::SimdFloatAlu                  0      0.00%     84.00% # Class of executed instruction
system.cpu0.op_class::SimdFloatCmp                  0      0.00%     84.00% # Class of executed instruction
system.cpu0.op_class::SimdFloatCvt                  0      0.00%     84.00% # Class of executed instruction
system.cpu0.op_class::SimdFloatDiv                  0      0.00%     84.00% # Class of executed instruction
system.cpu0.op_class::SimdFloatMisc                 0      0.00%     84.00% # Class of executed instruction
system.cpu0.op_class::SimdFloatMult                 0      0.00%     84.00% # Class of executed instruction
system.cpu0.op_class::SimdFloatMultAcc              0      0.00%     84.00% # Class of executed instruction
system.cpu0.op_class::SimdFloatSqrt                 0      0.00%     84.00% # Class of executed instruction
system.cpu0.op_class::SimdReduceAdd                 0      0.00%     84.00% # Class of executed instruction
system.cpu0.op_class::SimdReduceAlu                 0      0.00%     84.00% # Class of executed instruction
system.cpu0.op_class::SimdReduceCmp                 0      0.00%     84.00% # Class of executed instruction
system.cpu0.op_class::SimdFloatReduceAdd            0      0.00%     84.00% # Class of executed instruction
system.cpu0.op_class::SimdFloatReduceCmp            0      0.00%     84.00% # Class of executed instruction
system.cpu0.op_class::SimdAes                       0      0.00%     84.00% # Class of executed instruction
system.cpu0.op_class::SimdAesMix                    0      0.00%     84.00% # Class of executed instruction
system.cpu0.op_class::SimdSha1Hash                  0      0.00%     84.00% # Class of executed instruction
system.cpu0.op_class::SimdSha1Hash2                 0      0.00%     84.00% # Class of executed instruction
system.cpu0.op_class::SimdSha256Hash                0      0.00%     84.00% # Class of executed instruction
system.cpu0.op_class::SimdSha256Hash2               0      0.00%     84.00% # Class of executed instruction
system.cpu0.op_class::SimdShaSigma2                 0      0.00%     84.00% # Class of executed instruction
system.cpu0.op_class::SimdShaSigma3                 0      0.00%     84.00% # Class of executed instruction
system.cpu0.op_class::SimdPredAlu                   0      0.00%     84.00% # Class of executed instruction
system.cpu0.op_class::MemRead                       4     16.00%    100.00% # Class of executed instruction
system.cpu0.op_class::MemWrite                      0      0.00%    100.00% # Class of executed instruction
system.cpu0.op_class::FloatMemRead                  0      0.00%    100.00% # Class of executed instruction
system.cpu0.op_class::FloatMemWrite                 0      0.00%    100.00% # Class of executed instruction
system.cpu0.op_class::IprAccess                     0      0.00%    100.00% # Class of executed instruction
system.cpu0.op_class::InstPrefetch                  0      0.00%    100.00% # Class of executed instruction
system.cpu0.op_class::total                        25                       # Class of executed instruction
system.cpu0.workload.numSyscalls                    0                       # Number of system calls
system.cpu1.Branches                                2                       # Number of branches fetched
system.cpu1.committedInsts                         18                       # Number of instructions committed
system.cpu1.committedOps                           25                       # Number of ops (including micro ops) committed
system.cpu1.idle_fraction                           0                       # Percentage of idle cycles
system.cpu1.l2bus.snoop_filter.hit_multi_requests         1214                       # Number of requests hitting in the snoop filter with multiple (>1) holders of the requested data.
system.cpu1.l2bus.snoop_filter.hit_multi_snoops            0                       # Number of snoops hitting in the snoop filter with multiple (>1) holders of the requested data.
system.cpu1.l2bus.snoop_filter.hit_single_requests       546333                       # Number of requests hitting in the snoop filter with a single holder of the requested data.
system.cpu1.l2bus.snoop_filter.hit_single_snoops         2881                       # Number of snoops hitting in the snoop filter with a single holder of the requested data.
system.cpu1.l2bus.snoop_filter.tot_requests      1093075                       # Total number of requests made to the snoop filter.
system.cpu1.l2bus.snoop_filter.tot_snoops         2881                       # Total number of snoops made to the snoop filter.
system.cpu1.mmucache.mmubus.snoop_filter.hit_multi_requests            0                       # Number of requests hitting in the snoop filter with multiple (>1) holders of the requested data.
system.cpu1.mmucache.mmubus.snoop_filter.hit_multi_snoops            0                       # Number of snoops hitting in the snoop filter with multiple (>1) holders of the requested data.
system.cpu1.mmucache.mmubus.snoop_filter.hit_single_requests            0                       # Number of requests hitting in the snoop filter with a single holder of the requested data.
system.cpu1.mmucache.mmubus.snoop_filter.hit_single_snoops            0                       # Number of snoops hitting in the snoop filter with a single holder of the requested data.
system.cpu1.mmucache.mmubus.snoop_filter.tot_requests            0                       # Total number of requests made to the snoop filter.
system.cpu1.mmucache.mmubus.snoop_filter.tot_snoops            0                       # Total number of snoops made to the snoop filter.
system.cpu1.not_idle_fraction                       1                       # Percentage of non-idle cycles
system.cpu1.numCycles                              30                       # number of cpu cycles simulated
system.cpu1.numWorkItemsCompleted                   0                       # number of work items this cpu completed
system.cpu1.numWorkItemsStarted                     0                       # number of work items this cpu started
system.cpu1.num_busy_cycles                        30                       # Number of busy cycles
system.cpu1.num_cc_register_reads                  13                       # number of times the CC registers were read
system.cpu1.num_cc_register_writes                 18                       # number of times the CC registers were written
system.cpu1.num_conditional_control_insts            1                       # number of instructions that are conditional controls
system.cpu1.num_fp_alu_accesses                     0                       # Number of float alu accesses
system.cpu1.num_fp_insts                            0                       # number of float instructions
system.cpu1.num_fp_register_reads                   0                       # number of times the floating registers were read
system.cpu1.num_fp_register_writes                  0                       # number of times the floating registers were written
system.cpu1.num_func_calls                          0                       # number of times a function call or return occured
system.cpu1.num_idle_cycles                         0                       # Number of idle cycles
system.cpu1.num_int_alu_accesses                   25                       # Number of integer alu accesses
system.cpu1.num_int_insts                          25                       # number of integer instructions
system.cpu1.num_int_register_reads                 43                       # number of times the integer registers were read
system.cpu1.num_int_register_writes                23                       # number of times the integer registers were written
system.cpu1.num_load_insts                          4                       # Number of load instructions
system.cpu1.num_mem_refs                            4                       # number of memory refs
system.cpu1.num_store_insts                         0                       # Number of store instructions
system.cpu1.num_vec_alu_accesses                    0                       # Number of vector alu accesses
system.cpu1.num_vec_insts                           0                       # number of vector instructions
system.cpu1.num_vec_register_reads                  0                       # number of times the vector registers were read
system.cpu1.num_vec_register_writes                 0                       # number of times the vector registers were written
system.cpu1.op_class::No_OpClass                    0      0.00%      0.00% # Class of executed instruction
system.cpu1.op_class::IntAlu                       21     84.00%     84.00% # Class of executed instruction
system.cpu1.op_class::IntMult                       0      0.00%     84.00% # Class of executed instruction
system.cpu1.op_class::IntDiv                        0      0.00%     84.00% # Class of executed instruction
system.cpu1.op_class::FloatAdd                      0      0.00%     84.00% # Class of executed instruction
system.cpu1.op_class::FloatCmp                      0      0.00%     84.00% # Class of executed instruction
system.cpu1.op_class::FloatCvt                      0      0.00%     84.00% # Class of executed instruction
system.cpu1.op_class::FloatMult                     0      0.00%     84.00% # Class of executed instruction
system.cpu1.op_class::FloatMultAcc                  0      0.00%     84.00% # Class of executed instruction
system.cpu1.op_class::FloatDiv                      0      0.00%     84.00% # Class of executed instruction
system.cpu1.op_class::FloatMisc                     0      0.00%     84.00% # Class of executed instruction
system.cpu1.op_class::FloatSqrt                     0      0.00%     84.00% # Class of executed instruction
system.cpu1.op_class::SimdAdd                       0      0.00%     84.00% # Class of executed instruction
system.cpu1.op_class::SimdAddAcc                    0      0.00%     84.00% # Class of executed instruction
system.cpu1.op_class::SimdAlu                       0      0.00%     84.00% # Class of executed instruction
system.cpu1.op_class::SimdCmp                       0      0.00%     84.00% # Class of executed instruction
system.cpu1.op_class::SimdCvt                       0      0.00%     84.00% # Class of executed instruction
system.cpu1.op_class::SimdMisc                      0      0.00%     84.00% # Class of executed instruction
system.cpu1.op_class::SimdMult                      0      0.00%     84.00% # Class of executed instruction
system.cpu1.op_class::SimdMultAcc                   0      0.00%     84.00% # Class of executed instruction
system.cpu1.op_class::SimdShift                     0      0.00%     84.00% # Class of executed instruction
system.cpu1.op_class::SimdShiftAcc                  0      0.00%     84.00% # Class of executed instruction
system.cpu1.op_class::SimdDiv                       0      0.00%     84.00% # Class of executed instruction
system.cpu1.op_class::SimdSqrt                      0      0.00%     84.00% # Class of executed instruction
system.cpu1.op_class::SimdFloatAdd                  0      0.00%     84.00% # Class of executed instruction
system.cpu1.op_class::SimdFloatAlu                  0      0.00%     84.00% # Class of executed instruction
system.cpu1.op_class::SimdFloatCmp                  0      0.00%     84.00% # Class of executed instruction
system.cpu1.op_class::SimdFloatCvt                  0      0.00%     84.00% # Class of executed instruction
system.cpu1.op_class::SimdFloatDiv                  0      0.00%     84.00% # Class of executed instruction
system.cpu1.op_class::SimdFloatMisc                 0      0.00%     84.00% # Class of executed instruction
system.cpu1.op_class::SimdFloatMult                 0      0.00%     84.00% # Class of executed instruction
system.cpu1.op_class::SimdFloatMultAcc              0      0.00%     84.00% # Class of executed instruction
system.cpu1.op_class::SimdFloatSqrt                 0      0.00%     84.00% # Class of executed instruction
system.cpu1.op_class::SimdReduceAdd                 0      0.00%     84.00% # Class of executed instruction
system.cpu1.op_class::SimdReduceAlu                 0      0.00%     84.00% # Class of executed instruction
system.cpu1.op_class::SimdReduceCmp                 0      0.00%     84.00% # Class of executed instruction
system.cpu1.op_class::SimdFloatReduceAdd            0      0.00%     84.00% # Class of executed instruction
system.cpu1.op_class::SimdFloatReduceCmp            0      0.00%     84.00% # Class of executed instruction
system.cpu1.op_class::SimdAes                       0      0.00%     84.00% # Class of executed instruction
system.cpu1.op_class::SimdAesMix                    0      0.00%     84.00% # Class of executed instruction
system.cpu1.op_class::SimdSha1Hash                  0      0.00%     84.00% # Class of executed instruction
system.cpu1.op_class::SimdSha1Hash2                 0      0.00%     84.00% # Class of executed instruction
system.cpu1.op_class::SimdSha256Hash                0      0.00%     84.00% # Class of executed instruction
system.cpu1.op_class::SimdSha256Hash2               0      0.00%     84.00% # Class of executed instruction
system.cpu1.op_class::SimdShaSigma2                 0      0.00%     84.00% # Class of executed instruction
system.cpu1.op_class::SimdShaSigma3                 0      0.00%     84.00% # Class of executed instruction
system.cpu1.op_class::SimdPredAlu                   0      0.00%     84.00% # Class of executed instruction
system.cpu1.op_class::MemRead                       4     16.00%    100.00% # Class of executed instruction
system.cpu1.op_class::MemWrite                      0      0.00%    100.00% # Class of executed instruction
system.cpu1.op_class::FloatMemRead                  0      0.00%    100.00% # Class of executed instruction
system.cpu1.op_class::FloatMemWrite                 0      0.00%    100.00% # Class of executed instruction
system.cpu1.op_class::IprAccess                     0      0.00%    100.00% # Class of executed instruction
system.cpu1.op_class::InstPrefetch                  0      0.00%    100.00% # Class of executed instruction
system.cpu1.op_class::total                        25                       # Class of executed instruction
system.cpu1.workload.numSyscalls                    0                       # Number of system calls
system.cpu2.Branches                                2                       # Number of branches fetched
system.cpu2.committedInsts                         18                       # Number of instructions committed
system.cpu2.committedOps                           25                       # Number of ops (including micro ops) committed
system.cpu2.idle_fraction                           0                       # Percentage of idle cycles
system.cpu2.l2bus.snoop_filter.hit_multi_requests         1154                       # Number of requests hitting in the snoop filter with multiple (>1) holders of the requested data.
system.cpu2.l2bus.snoop_filter.hit_multi_snoops            0                       # Number of snoops hitting in the snoop filter with multiple (>1) holders of the requested data.
system.cpu2.l2bus.snoop_filter.hit_single_requests       543849                       # Number of requests hitting in the snoop filter with a single holder of the requested data.
system.cpu2.l2bus.snoop_filter.hit_single_snoops         4725                       # Number of snoops hitting in the snoop filter with a single holder of the requested data.
system.cpu2.l2bus.snoop_filter.tot_requests      1087984                       # Total number of requests made to the snoop filter.
system.cpu2.l2bus.snoop_filter.tot_snoops         4725                       # Total number of snoops made to the snoop filter.
system.cpu2.mmucache.mmubus.snoop_filter.hit_multi_requests            0                       # Number of requests hitting in the snoop filter with multiple (>1) holders of the requested data.
system.cpu2.mmucache.mmubus.snoop_filter.hit_multi_snoops            0                       # Number of snoops hitting in the snoop filter with multiple (>1) holders of the requested data.
system.cpu2.mmucache.mmubus.snoop_filter.hit_single_requests            0                       # Number of requests hitting in the snoop filter with a single holder of the requested data.
system.cpu2.mmucache.mmubus.snoop_filter.hit_single_snoops            0                       # Number of snoops hitting in the snoop filter with a single holder of the requested data.
system.cpu2.mmucache.mmubus.snoop_filter.tot_requests            0                       # Total number of requests made to the snoop filter.
system.cpu2.mmucache.mmubus.snoop_filter.tot_snoops            0                       # Total number of snoops made to the snoop filter.
system.cpu2.not_idle_fraction                       1                       # Percentage of non-idle cycles
system.cpu2.numCycles                              30                       # number of cpu cycles simulated
system.cpu2.numWorkItemsCompleted                   0                       # number of work items this cpu completed
system.cpu2.numWorkItemsStarted                     0                       # number of work items this cpu started
system.cpu2.num_busy_cycles                        30                       # Number of busy cycles
system.cpu2.num_cc_register_reads                  13                       # number of times the CC registers were read
system.cpu2.num_cc_register_writes                 18                       # number of times the CC registers were written
system.cpu2.num_conditional_control_insts            1                       # number of instructions that are conditional controls
system.cpu2.num_fp_alu_accesses                     0                       # Number of float alu accesses
system.cpu2.num_fp_insts                            0                       # number of float instructions
system.cpu2.num_fp_register_reads                   0                       # number of times the floating registers were read
system.cpu2.num_fp_register_writes                  0                       # number of times the floating registers were written
system.cpu2.num_func_calls                          0                       # number of times a function call or return occured
system.cpu2.num_idle_cycles                         0                       # Number of idle cycles
system.cpu2.num_int_alu_accesses                   25                       # Number of integer alu accesses
system.cpu2.num_int_insts                          25                       # number of integer instructions
system.cpu2.num_int_register_reads                 43                       # number of times the integer registers were read
system.cpu2.num_int_register_writes                23                       # number of times the integer registers were written
system.cpu2.num_load_insts                          4                       # Number of load instructions
system.cpu2.num_mem_refs                            4                       # number of memory refs
system.cpu2.num_store_insts                         0                       # Number of store instructions
system.cpu2.num_vec_alu_accesses                    0                       # Number of vector alu accesses
system.cpu2.num_vec_insts                           0                       # number of vector instructions
system.cpu2.num_vec_register_reads                  0                       # number of times the vector registers were read
system.cpu2.num_vec_register_writes                 0                       # number of times the vector registers were written
system.cpu2.op_class::No_OpClass                    0      0.00%      0.00% # Class of executed instruction
system.cpu2.op_class::IntAlu                       21     84.00%     84.00% # Class of executed instruction
system.cpu2.op_class::IntMult                       0      0.00%     84.00% # Class of executed instruction
system.cpu2.op_class::IntDiv                        0      0.00%     84.00% # Class of executed instruction
system.cpu2.op_class::FloatAdd                      0      0.00%     84.00% # Class of executed instruction
system.cpu2.op_class::FloatCmp                      0      0.00%     84.00% # Class of executed instruction
system.cpu2.op_class::FloatCvt                      0      0.00%     84.00% # Class of executed instruction
system.cpu2.op_class::FloatMult                     0      0.00%     84.00% # Class of executed instruction
system.cpu2.op_class::FloatMultAcc                  0      0.00%     84.00% # Class of executed instruction
system.cpu2.op_class::FloatDiv                      0      0.00%     84.00% # Class of executed instruction
system.cpu2.op_class::FloatMisc                     0      0.00%     84.00% # Class of executed instruction
system.cpu2.op_class::FloatSqrt                     0      0.00%     84.00% # Class of executed instruction
system.cpu2.op_class::SimdAdd                       0      0.00%     84.00% # Class of executed instruction
system.cpu2.op_class::SimdAddAcc                    0      0.00%     84.00% # Class of executed instruction
system.cpu2.op_class::SimdAlu                       0      0.00%     84.00% # Class of executed instruction
system.cpu2.op_class::SimdCmp                       0      0.00%     84.00% # Class of executed instruction
system.cpu2.op_class::SimdCvt                       0      0.00%     84.00% # Class of executed instruction
system.cpu2.op_class::SimdMisc                      0      0.00%     84.00% # Class of executed instruction
system.cpu2.op_class::SimdMult                      0      0.00%     84.00% # Class of executed instruction
system.cpu2.op_class::SimdMultAcc                   0      0.00%     84.00% # Class of executed instruction
system.cpu2.op_class::SimdShift                     0      0.00%     84.00% # Class of executed instruction
system.cpu2.op_class::SimdShiftAcc                  0      0.00%     84.00% # Class of executed instruction
system.cpu2.op_class::SimdDiv                       0      0.00%     84.00% # Class of executed instruction
system.cpu2.op_class::SimdSqrt                      0      0.00%     84.00% # Class of executed instruction
system.cpu2.op_class::SimdFloatAdd                  0      0.00%     84.00% # Class of executed instruction
system.cpu2.op_class::SimdFloatAlu                  0      0.00%     84.00% # Class of executed instruction
system.cpu2.op_class::SimdFloatCmp                  0      0.00%     84.00% # Class of executed instruction
system.cpu2.op_class::SimdFloatCvt                  0      0.00%     84.00% # Class of executed instruction
system.cpu2.op_class::SimdFloatDiv                  0      0.00%     84.00% # Class of executed instruction
system.cpu2.op_class::SimdFloatMisc                 0      0.00%     84.00% # Class of executed instruction
system.cpu2.op_class::SimdFloatMult                 0      0.00%     84.00% # Class of executed instruction
system.cpu2.op_class::SimdFloatMultAcc              0      0.00%     84.00% # Class of executed instruction
system.cpu2.op_class::SimdFloatSqrt                 0      0.00%     84.00% # Class of executed instruction
system.cpu2.op_class::SimdReduceAdd                 0      0.00%     84.00% # Class of executed instruction
system.cpu2.op_class::SimdReduceAlu                 0      0.00%     84.00% # Class of executed instruction
system.cpu2.op_class::SimdReduceCmp                 0      0.00%     84.00% # Class of executed instruction
system.cpu2.op_class::SimdFloatReduceAdd            0      0.00%     84.00% # Class of executed instruction
system.cpu2.op_class::SimdFloatReduceCmp            0      0.00%     84.00% # Class of executed instruction
system.cpu2.op_class::SimdAes                       0      0.00%     84.00% # Class of executed instruction
system.cpu2.op_class::SimdAesMix                    0      0.00%     84.00% # Class of executed instruction
system.cpu2.op_class::SimdSha1Hash                  0      0.00%     84.00% # Class of executed instruction
system.cpu2.op_class::SimdSha1Hash2                 0      0.00%     84.00% # Class of executed instruction
system.cpu2.op_class::SimdSha256Hash                0      0.00%     84.00% # Class of executed instruction
system.cpu2.op_class::SimdSha256Hash2               0      0.00%     84.00% # Class of executed instruction
system.cpu2.op_class::SimdShaSigma2                 0      0.00%     84.00% # Class of executed instruction
system.cpu2.op_class::SimdShaSigma3                 0      0.00%     84.00% # Class of executed instruction
system.cpu2.op_class::SimdPredAlu                   0      0.00%     84.00% # Class of executed instruction
system.cpu2.op_class::MemRead                       4     16.00%    100.00% # Class of executed instruction
system.cpu2.op_class::MemWrite                      0      0.00%    100.00% # Class of executed instruction
system.cpu2.op_class::FloatMemRead                  0      0.00%    100.00% # Class of executed instruction
system.cpu2.op_class::FloatMemWrite                 0      0.00%    100.00% # Class of executed instruction
system.cpu2.op_class::IprAccess                     0      0.00%    100.00% # Class of executed instruction
system.cpu2.op_class::InstPrefetch                  0      0.00%    100.00% # Class of executed instruction
system.cpu2.op_class::total                        25                       # Class of executed instruction
system.cpu2.workload.numSyscalls                    0                       # Number of system calls
system.cpu3.Branches                                2                       # Number of branches fetched
system.cpu3.committedInsts                         18                       # Number of instructions committed
system.cpu3.committedOps                           25                       # Number of ops (including micro ops) committed
system.cpu3.idle_fraction                           0                       # Percentage of idle cycles
system.cpu3.l2bus.snoop_filter.hit_multi_requests         1171                       # Number of requests hitting in the snoop filter with multiple (>1) holders of the requested data.
system.cpu3.l2bus.snoop_filter.hit_multi_snoops            0                       # Number of snoops hitting in the snoop filter with multiple (>1) holders of the requested data.
system.cpu3.l2bus.snoop_filter.hit_single_requests       543749                       # Number of requests hitting in the snoop filter with a single holder of the requested data.
system.cpu3.l2bus.snoop_filter.hit_single_snoops         2887                       # Number of snoops hitting in the snoop filter with a single holder of the requested data.
system.cpu3.l2bus.snoop_filter.tot_requests      1087901                       # Total number of requests made to the snoop filter.
system.cpu3.l2bus.snoop_filter.tot_snoops         2887                       # Total number of snoops made to the snoop filter.
system.cpu3.mmucache.mmubus.snoop_filter.hit_multi_requests            0                       # Number of requests hitting in the snoop filter with multiple (>1) holders of the requested data.
system.cpu3.mmucache.mmubus.snoop_filter.hit_multi_snoops            0                       # Number of snoops hitting in the snoop filter with multiple (>1) holders of the requested data.
system.cpu3.mmucache.mmubus.snoop_filter.hit_single_requests            0                       # Number of requests hitting in the snoop filter with a single holder of the requested data.
system.cpu3.mmucache.mmubus.snoop_filter.hit_single_snoops            0                       # Number of snoops hitting in the snoop filter with a single holder of the requested data.
system.cpu3.mmucache.mmubus.snoop_filter.tot_requests            0                       # Total number of requests made to the snoop filter.
system.cpu3.mmucache.mmubus.snoop_filter.tot_snoops            0                       # Total number of snoops made to the snoop filter.
system.cpu3.not_idle_fraction                       1                       # Percentage of non-idle cycles
system.cpu3.numCycles                              30                       # number of cpu cycles simulated
system.cpu3.numWorkItemsCompleted                   0                       # number of work items this cpu completed
system.cpu3.numWorkItemsStarted                     0                       # number of work items this cpu started
system.cpu3.num_busy_cycles                        30                       # Number of busy cycles
system.cpu3.num_cc_register_reads                  13                       # number of times the CC registers were read
system.cpu3.num_cc_register_writes                 18                       # number of times the CC registers were written
system.cpu3.num_conditional_control_insts            1                       # number of instructions that are conditional controls
system.cpu3.num_fp_alu_accesses                     0                       # Number of float alu accesses
system.cpu3.num_fp_insts                            0                       # number of float instructions
system.cpu3.num_fp_register_reads                   0                       # number of times the floating registers were read
system.cpu3.num_fp_register_writes                  0                       # number of times the floating registers were written
system.cpu3.num_func_calls                          0                       # number of times a function call or return occured
system.cpu3.num_idle_cycles                         0                       # Number of idle cycles
system.cpu3.num_int_alu_accesses                   25                       # Number of integer alu accesses
system.cpu3.num_int_insts                          25                       # number of integer instructions
system.cpu3.num_int_register_reads                 43                       # number of times the integer registers were read
system.cpu3.num_int_register_writes                23                       # number of times the integer registers were written
system.cpu3.num_load_insts                          4                       # Number of load instructions
system.cpu3.num_mem_refs                            4                       # number of memory refs
system.cpu3.num_store_insts                         0                       # Number of store instructions
system.cpu3.num_vec_alu_accesses                    0                       # Number of vector alu accesses
system.cpu3.num_vec_insts                           0                       # number of vector instructions
system.cpu3.num_vec_register_reads                  0                       # number of times the vector registers were read
system.cpu3.num_vec_register_writes                 0                       # number of times the vector registers were written
system.cpu3.op_class::No_OpClass                    0      0.00%      0.00% # Class of executed instruction
system.cpu3.op_class::IntAlu                       21     84.00%     84.00% # Class of executed instruction
system.cpu3.op_class::IntMult                       0      0.00%     84.00% # Class of executed instruction
system.cpu3.op_class::IntDiv                        0      0.00%     84.00% # Class of executed instruction
system.cpu3.op_class::FloatAdd                      0      0.00%     84.00% # Class of executed instruction
system.cpu3.op_class::FloatCmp                      0      0.00%     84.00% # Class of executed instruction
system.cpu3.op_class::FloatCvt                      0      0.00%     84.00% # Class of executed instruction
system.cpu3.op_class::FloatMult                     0      0.00%     84.00% # Class of executed instruction
system.cpu3.op_class::FloatMultAcc                  0      0.00%     84.00% # Class of executed instruction
system.cpu3.op_class::FloatDiv                      0      0.00%     84.00% # Class of executed instruction
system.cpu3.op_class::FloatMisc                     0      0.00%     84.00% # Class of executed instruction
system.cpu3.op_class::FloatSqrt                     0      0.00%     84.00% # Class of executed instruction
system.cpu3.op_class::SimdAdd                       0      0.00%     84.00% # Class of executed instruction
system.cpu3.op_class::SimdAddAcc                    0      0.00%     84.00% # Class of executed instruction
system.cpu3.op_class::SimdAlu                       0      0.00%     84.00% # Class of executed instruction
system.cpu3.op_class::SimdCmp                       0      0.00%     84.00% # Class of executed instruction
system.cpu3.op_class::SimdCvt                       0      0.00%     84.00% # Class of executed instruction
system.cpu3.op_class::SimdMisc                      0      0.00%     84.00% # Class of executed instruction
system.cpu3.op_class::SimdMult                      0      0.00%     84.00% # Class of executed instruction
system.cpu3.op_class::SimdMultAcc                   0      0.00%     84.00% # Class of executed instruction
system.cpu3.op_class::SimdShift                     0      0.00%     84.00% # Class of executed instruction
system.cpu3.op_class::SimdShiftAcc                  0      0.00%     84.00% # Class of executed instruction
system.cpu3.op_class::SimdDiv                       0      0.00%     84.00% # Class of executed instruction
system.cpu3.op_class::SimdSqrt                      0      0.00%     84.00% # Class of executed instruction
system.cpu3.op_class::SimdFloatAdd                  0      0.00%     84.00% # Class of executed instruction
system.cpu3.op_class::SimdFloatAlu                  0      0.00%     84.00% # Class of executed instruction
system.cpu3.op_class::SimdFloatCmp                  0      0.00%     84.00% # Class of executed instruction
system.cpu3.op_class::SimdFloatCvt                  0      0.00%     84.00% # Class of executed instruction
system.cpu3.op_class::SimdFloatDiv                  0      0.00%     84.00% # Class of executed instruction
system.cpu3.op_class::SimdFloatMisc                 0      0.00%     84.00% # Class of executed instruction
system.cpu3.op_class::SimdFloatMult                 0      0.00%     84.00% # Class of executed instruction
system.cpu3.op_class::SimdFloatMultAcc              0      0.00%     84.00% # Class of executed instruction
system.cpu3.op_class::SimdFloatSqrt                 0      0.00%     84.00% # Class of executed instruction
system.cpu3.op_class::SimdReduceAdd                 0      0.00%     84.00% # Class of executed instruction
system.cpu3.op_class::SimdReduceAlu                 0      0.00%     84.00% # Class of executed instruction
system.cpu3.op_class::SimdReduceCmp                 0      0.00%     84.00% # Class of executed instruction
system.cpu3.op_class::SimdFloatReduceAdd            0      0.00%     84.00% # Class of executed instruction
system.cpu3.op_class::SimdFloatReduceCmp            0      0.00%     84.00% # Class of executed instruction
system.cpu3.op_class::SimdAes                       0      0.00%     84.00% # Class of executed instruction
system.cpu3.op_class::SimdAesMix                    0      0.00%     84.00% # Class of executed instruction
system.cpu3.op_class::SimdSha1Hash                  0      0.00%     84.00% # Class of executed instruction
system.cpu3.op_class::SimdSha1Hash2                 0      0.00%     84.00% # Class of executed instruction
system.cpu3.op_class::SimdSha256Hash                0      0.00%     84.00% # Class of executed instruction
system.cpu3.op_class::SimdSha256Hash2               0      0.00%     84.00% # Class of executed instruction
system.cpu3.op_class::SimdShaSigma2                 0      0.00%     84.00% # Class of executed instruction
system.cpu3.op_class::SimdShaSigma3                 0      0.00%     84.00% # Class of executed instruction
system.cpu3.op_class::SimdPredAlu                   0      0.00%     84.00% # Class of executed instruction
system.cpu3.op_class::MemRead                       4     16.00%    100.00% # Class of executed instruction
system.cpu3.op_class::MemWrite                      0      0.00%    100.00% # Class of executed instruction
system.cpu3.op_class::FloatMemRead                  0      0.00%    100.00% # Class of executed instruction
system.cpu3.op_class::FloatMemWrite                 0      0.00%    100.00% # Class of executed instruction
system.cpu3.op_class::IprAccess                     0      0.00%    100.00% # Class of executed instruction
system.cpu3.op_class::InstPrefetch                  0      0.00%    100.00% # Class of executed instruction
system.cpu3.op_class::total                        25                       # Class of executed instruction
system.cpu3.workload.numSyscalls                    0                       # Number of system calls
system.l3bus.snoop_filter.hit_multi_requests            0                       # Number of requests hitting in the snoop filter with multiple (>1) holders of the requested data.
system.l3bus.snoop_filter.hit_multi_snoops            0                       # Number of snoops hitting in the snoop filter with multiple (>1) holders of the requested data.
system.l3bus.snoop_filter.hit_single_requests       338318                       # Number of requests hitting in the snoop filter with a single holder of the requested data.
system.l3bus.snoop_filter.hit_single_snoops            0                       # Number of snoops hitting in the snoop filter with a single holder of the requested data.
system.l3bus.snoop_filter.tot_requests         689630                       # Total number of requests made to the snoop filter.
system.l3bus.snoop_filter.tot_snoops                0                       # Total number of snoops made to the snoop filter.
system.membus.snoop_filter.hit_multi_requests            0                       # Number of requests hitting in the snoop filter with multiple (>1) holders of the requested data.
system.membus.snoop_filter.hit_multi_snoops            0                       # Number of snoops hitting in the snoop filter with multiple (>1) holders of the requested data.
system.membus.snoop_filter.hit_single_requests       230540                       # Number of requests hitting in the snoop filter with a single holder of the requested data.
system.membus.snoop_filter.hit_single_snoops            0                       # Number of snoops hitting in the snoop filter with a single holder of the requested data.
system.membus.snoop_filter.tot_requests        539302                       # Total number of requests made to the snoop filter.
system.membus.snoop_filter.tot_snoops               0                       # Total number of snoops made to the snoop filter.
system.switch_cpus0.cc_regfile_reads        223576758                       # number of cc regfile reads
system.switch_cpus0.cc_regfile_writes       199517914                       # number of cc regfile writes
system.switch_cpus0.committedInsts          249952267                       # Number of Instructions Simulated
system.switch_cpus0.committedOps            404059379                       # Number of Ops (including micro ops) Simulated
system.switch_cpus0.cpi                      0.734358                       # CPI: Cycles Per Instruction
system.switch_cpus0.cpi_total                0.734358                       # CPI: Total CPI of All Threads
system.switch_cpus0.fp_regfile_reads           230304                       # number of floating regfile reads
system.switch_cpus0.fp_regfile_writes          230413                       # number of floating regfile writes
system.switch_cpus0.idleCycles                 127446                       # Total number of cycles that the CPU has spent unscheduled due to idling
system.switch_cpus0.iew.branchMispredicts      3350050                       # Number of branch mispredicts detected at execute
system.switch_cpus0.iew.exec_branches        44000888                       # Number of branches executed
system.switch_cpus0.iew.exec_nop                    0                       # number of nop insts executed
system.switch_cpus0.iew.exec_rate            2.789677                       # Inst execution rate
system.switch_cpus0.iew.exec_refs           118402390                       # number of memory reference insts executed
system.switch_cpus0.iew.exec_stores          36228619                       # Number of stores executed
system.switch_cpus0.iew.exec_swp                    0                       # number of swp insts executed
system.switch_cpus0.iew.iewBlockCycles       26276647                       # Number of cycles IEW is blocking
system.switch_cpus0.iew.iewDispLoadInsts     94525032                       # Number of dispatched load instructions
system.switch_cpus0.iew.iewDispNonSpecInsts            0                       # Number of dispatched non-speculative instructions
system.switch_cpus0.iew.iewDispSquashedInsts        84932                       # Number of squashed instructions skipped by dispatch
system.switch_cpus0.iew.iewDispStoreInsts     43393893                       # Number of dispatched store instructions
system.switch_cpus0.iew.iewDispatchedInsts    603564574                       # Number of instructions dispatched to IQ
system.switch_cpus0.iew.iewExecLoadInsts     82173771                       # Number of load instructions executed
system.switch_cpus0.iew.iewExecSquashedInsts      6765866                       # Number of squashed instructions skipped in execute
system.switch_cpus0.iew.iewExecutedInsts    512057532                       # Number of executed instructions
system.switch_cpus0.iew.iewIQFullEvents         46503                       # Number of times the IQ has become full, causing a stall
system.switch_cpus0.iew.iewIdleCycles               0                       # Number of cycles IEW is idle
system.switch_cpus0.iew.iewLSQFullEvents        55214                       # Number of times the LSQ has become full, causing a stall
system.switch_cpus0.iew.iewSquashCycles       3012558                       # Number of cycles IEW is squashing
system.switch_cpus0.iew.iewUnblockCycles       115787                       # Number of cycles IEW is unblocking
system.switch_cpus0.iew.memOrderViolationEvents       108856                       # Number of memory order violations
system.switch_cpus0.iew.predictedNotTakenIncorrect      1668978                       # Number of branches that were predicted not taken incorrectly
system.switch_cpus0.iew.predictedTakenIncorrect      1681072                       # Number of branches that were predicted taken incorrectly
system.switch_cpus0.iew.wb_consumers        664444457                       # num instructions consuming a value
system.switch_cpus0.iew.wb_count            509754962                       # cumulative count of insts written-back
system.switch_cpus0.iew.wb_fanout            0.583357                       # average fanout of values written-back
system.switch_cpus0.iew.wb_producers        387608380                       # num instructions producing a value
system.switch_cpus0.iew.wb_rate              2.777132                       # insts written-back per cycle
system.switch_cpus0.iew.wb_sent             511370816                       # cumulative count of insts sent to commit
system.switch_cpus0.int_regfile_reads       795634165                       # number of integer regfile reads
system.switch_cpus0.int_regfile_writes      434532117                       # number of integer regfile writes
system.switch_cpus0.ipc                      1.361734                       # IPC: Instructions Per Cycle
system.switch_cpus0.ipc_total                1.361734                       # IPC: Total IPC of All Threads
system.switch_cpus0.iq.FU_type_0::No_OpClass      1319005      0.25%      0.25% # Type of FU issued
system.switch_cpus0.iq.FU_type_0::IntAlu    392212597     75.60%     75.85% # Type of FU issued
system.switch_cpus0.iq.FU_type_0::IntMult      3432835      0.66%     76.51% # Type of FU issued
system.switch_cpus0.iq.FU_type_0::IntDiv       893609      0.17%     76.68% # Type of FU issued
system.switch_cpus0.iq.FU_type_0::FloatAdd            0      0.00%     76.68% # Type of FU issued
system.switch_cpus0.iq.FU_type_0::FloatCmp            0      0.00%     76.68% # Type of FU issued
system.switch_cpus0.iq.FU_type_0::FloatCvt            0      0.00%     76.68% # Type of FU issued
system.switch_cpus0.iq.FU_type_0::FloatMult            0      0.00%     76.68% # Type of FU issued
system.switch_cpus0.iq.FU_type_0::FloatMultAcc            0      0.00%     76.68% # Type of FU issued
system.switch_cpus0.iq.FU_type_0::FloatDiv            0      0.00%     76.68% # Type of FU issued
system.switch_cpus0.iq.FU_type_0::FloatMisc            0      0.00%     76.68% # Type of FU issued
system.switch_cpus0.iq.FU_type_0::FloatSqrt            0      0.00%     76.68% # Type of FU issued
system.switch_cpus0.iq.FU_type_0::SimdAdd            0      0.00%     76.68% # Type of FU issued
system.switch_cpus0.iq.FU_type_0::SimdAddAcc            0      0.00%     76.68% # Type of FU issued
system.switch_cpus0.iq.FU_type_0::SimdAlu            0      0.00%     76.68% # Type of FU issued
system.switch_cpus0.iq.FU_type_0::SimdCmp            0      0.00%     76.68% # Type of FU issued
system.switch_cpus0.iq.FU_type_0::SimdCvt            0      0.00%     76.68% # Type of FU issued
system.switch_cpus0.iq.FU_type_0::SimdMisc            0      0.00%     76.68% # Type of FU issued
system.switch_cpus0.iq.FU_type_0::SimdMult            0      0.00%     76.68% # Type of FU issued
system.switch_cpus0.iq.FU_type_0::SimdMultAcc            0      0.00%     76.68% # Type of FU issued
system.switch_cpus0.iq.FU_type_0::SimdShift            0      0.00%     76.68% # Type of FU issued
system.switch_cpus0.iq.FU_type_0::SimdShiftAcc            0      0.00%     76.68% # Type of FU issued
system.switch_cpus0.iq.FU_type_0::SimdDiv            0      0.00%     76.68% # Type of FU issued
system.switch_cpus0.iq.FU_type_0::SimdSqrt            0      0.00%     76.68% # Type of FU issued
system.switch_cpus0.iq.FU_type_0::SimdFloatAdd            0      0.00%     76.68% # Type of FU issued
system.switch_cpus0.iq.FU_type_0::SimdFloatAlu            0      0.00%     76.68% # Type of FU issued
system.switch_cpus0.iq.FU_type_0::SimdFloatCmp            0      0.00%     76.68% # Type of FU issued
system.switch_cpus0.iq.FU_type_0::SimdFloatCvt            0      0.00%     76.68% # Type of FU issued
system.switch_cpus0.iq.FU_type_0::SimdFloatDiv            0      0.00%     76.68% # Type of FU issued
system.switch_cpus0.iq.FU_type_0::SimdFloatMisc            0      0.00%     76.68% # Type of FU issued
system.switch_cpus0.iq.FU_type_0::SimdFloatMult            0      0.00%     76.68% # Type of FU issued
system.switch_cpus0.iq.FU_type_0::SimdFloatMultAcc            0      0.00%     76.68% # Type of FU issued
system.switch_cpus0.iq.FU_type_0::SimdFloatSqrt            0      0.00%     76.68% # Type of FU issued
system.switch_cpus0.iq.FU_type_0::SimdReduceAdd            0      0.00%     76.68% # Type of FU issued
system.switch_cpus0.iq.FU_type_0::SimdReduceAlu            0      0.00%     76.68% # Type of FU issued
system.switch_cpus0.iq.FU_type_0::SimdReduceCmp            0      0.00%     76.68% # Type of FU issued
system.switch_cpus0.iq.FU_type_0::SimdFloatReduceAdd            0      0.00%     76.68% # Type of FU issued
system.switch_cpus0.iq.FU_type_0::SimdFloatReduceCmp            0      0.00%     76.68% # Type of FU issued
system.switch_cpus0.iq.FU_type_0::SimdAes            0      0.00%     76.68% # Type of FU issued
system.switch_cpus0.iq.FU_type_0::SimdAesMix            0      0.00%     76.68% # Type of FU issued
system.switch_cpus0.iq.FU_type_0::SimdSha1Hash            0      0.00%     76.68% # Type of FU issued
system.switch_cpus0.iq.FU_type_0::SimdSha1Hash2            0      0.00%     76.68% # Type of FU issued
system.switch_cpus0.iq.FU_type_0::SimdSha256Hash            0      0.00%     76.68% # Type of FU issued
system.switch_cpus0.iq.FU_type_0::SimdSha256Hash2            0      0.00%     76.68% # Type of FU issued
system.switch_cpus0.iq.FU_type_0::SimdShaSigma2            0      0.00%     76.68% # Type of FU issued
system.switch_cpus0.iq.FU_type_0::SimdShaSigma3            0      0.00%     76.68% # Type of FU issued
system.switch_cpus0.iq.FU_type_0::SimdPredAlu            0      0.00%     76.68% # Type of FU issued
system.switch_cpus0.iq.FU_type_0::MemRead     83681717     16.13%     92.81% # Type of FU issued
system.switch_cpus0.iq.FU_type_0::MemWrite     36822885      7.10%     99.91% # Type of FU issued
system.switch_cpus0.iq.FU_type_0::FloatMemRead       230426      0.04%     99.96% # Type of FU issued
system.switch_cpus0.iq.FU_type_0::FloatMemWrite       230327      0.04%    100.00% # Type of FU issued
system.switch_cpus0.iq.FU_type_0::IprAccess            0      0.00%    100.00% # Type of FU issued
system.switch_cpus0.iq.FU_type_0::InstPrefetch            0      0.00%    100.00% # Type of FU issued
system.switch_cpus0.iq.FU_type_0::total     518823401                       # Type of FU issued
system.switch_cpus0.iq.fp_alu_accesses         460753                       # Number of floating point alu accesses
system.switch_cpus0.iq.fp_inst_queue_reads       921506                       # Number of floating instruction queue reads
system.switch_cpus0.iq.fp_inst_queue_wakeup_accesses       460631                       # Number of floating instruction queue wakeup accesses
system.switch_cpus0.iq.fp_inst_queue_writes       820524                       # Number of floating instruction queue writes
system.switch_cpus0.iq.fu_busy_cnt           10914006                       # FU busy when requested
system.switch_cpus0.iq.fu_busy_rate          0.021036                       # FU busy rate (busy events/executed inst)
system.switch_cpus0.iq.fu_full::No_OpClass            0      0.00%      0.00% # attempts to use FU when none available
system.switch_cpus0.iq.fu_full::IntAlu        7545010     69.13%     69.13% # attempts to use FU when none available
system.switch_cpus0.iq.fu_full::IntMult             0      0.00%     69.13% # attempts to use FU when none available
system.switch_cpus0.iq.fu_full::IntDiv              0      0.00%     69.13% # attempts to use FU when none available
system.switch_cpus0.iq.fu_full::FloatAdd            0      0.00%     69.13% # attempts to use FU when none available
system.switch_cpus0.iq.fu_full::FloatCmp            0      0.00%     69.13% # attempts to use FU when none available
system.switch_cpus0.iq.fu_full::FloatCvt            0      0.00%     69.13% # attempts to use FU when none available
system.switch_cpus0.iq.fu_full::FloatMult            0      0.00%     69.13% # attempts to use FU when none available
system.switch_cpus0.iq.fu_full::FloatMultAcc            0      0.00%     69.13% # attempts to use FU when none available
system.switch_cpus0.iq.fu_full::FloatDiv            0      0.00%     69.13% # attempts to use FU when none available
system.switch_cpus0.iq.fu_full::FloatMisc            0      0.00%     69.13% # attempts to use FU when none available
system.switch_cpus0.iq.fu_full::FloatSqrt            0      0.00%     69.13% # attempts to use FU when none available
system.switch_cpus0.iq.fu_full::SimdAdd             0      0.00%     69.13% # attempts to use FU when none available
system.switch_cpus0.iq.fu_full::SimdAddAcc            0      0.00%     69.13% # attempts to use FU when none available
system.switch_cpus0.iq.fu_full::SimdAlu             0      0.00%     69.13% # attempts to use FU when none available
system.switch_cpus0.iq.fu_full::SimdCmp             0      0.00%     69.13% # attempts to use FU when none available
system.switch_cpus0.iq.fu_full::SimdCvt             0      0.00%     69.13% # attempts to use FU when none available
system.switch_cpus0.iq.fu_full::SimdMisc            0      0.00%     69.13% # attempts to use FU when none available
system.switch_cpus0.iq.fu_full::SimdMult            0      0.00%     69.13% # attempts to use FU when none available
system.switch_cpus0.iq.fu_full::SimdMultAcc            0      0.00%     69.13% # attempts to use FU when none available
system.switch_cpus0.iq.fu_full::SimdShift            0      0.00%     69.13% # attempts to use FU when none available
system.switch_cpus0.iq.fu_full::SimdShiftAcc            0      0.00%     69.13% # attempts to use FU when none available
system.switch_cpus0.iq.fu_full::SimdDiv             0      0.00%     69.13% # attempts to use FU when none available
system.switch_cpus0.iq.fu_full::SimdSqrt            0      0.00%     69.13% # attempts to use FU when none available
system.switch_cpus0.iq.fu_full::SimdFloatAdd            0      0.00%     69.13% # attempts to use FU when none available
system.switch_cpus0.iq.fu_full::SimdFloatAlu            0      0.00%     69.13% # attempts to use FU when none available
system.switch_cpus0.iq.fu_full::SimdFloatCmp            0      0.00%     69.13% # attempts to use FU when none available
system.switch_cpus0.iq.fu_full::SimdFloatCvt            0      0.00%     69.13% # attempts to use FU when none available
system.switch_cpus0.iq.fu_full::SimdFloatDiv            0      0.00%     69.13% # attempts to use FU when none available
system.switch_cpus0.iq.fu_full::SimdFloatMisc            0      0.00%     69.13% # attempts to use FU when none available
system.switch_cpus0.iq.fu_full::SimdFloatMult            0      0.00%     69.13% # attempts to use FU when none available
system.switch_cpus0.iq.fu_full::SimdFloatMultAcc            0      0.00%     69.13% # attempts to use FU when none available
system.switch_cpus0.iq.fu_full::SimdFloatSqrt            0      0.00%     69.13% # attempts to use FU when none available
system.switch_cpus0.iq.fu_full::SimdReduceAdd            0      0.00%     69.13% # attempts to use FU when none available
system.switch_cpus0.iq.fu_full::SimdReduceAlu            0      0.00%     69.13% # attempts to use FU when none available
system.switch_cpus0.iq.fu_full::SimdReduceCmp            0      0.00%     69.13% # attempts to use FU when none available
system.switch_cpus0.iq.fu_full::SimdFloatReduceAdd            0      0.00%     69.13% # attempts to use FU when none available
system.switch_cpus0.iq.fu_full::SimdFloatReduceCmp            0      0.00%     69.13% # attempts to use FU when none available
system.switch_cpus0.iq.fu_full::SimdAes             0      0.00%     69.13% # attempts to use FU when none available
system.switch_cpus0.iq.fu_full::SimdAesMix            0      0.00%     69.13% # attempts to use FU when none available
system.switch_cpus0.iq.fu_full::SimdSha1Hash            0      0.00%     69.13% # attempts to use FU when none available
system.switch_cpus0.iq.fu_full::SimdSha1Hash2            0      0.00%     69.13% # attempts to use FU when none available
system.switch_cpus0.iq.fu_full::SimdSha256Hash            0      0.00%     69.13% # attempts to use FU when none available
system.switch_cpus0.iq.fu_full::SimdSha256Hash2            0      0.00%     69.13% # attempts to use FU when none available
system.switch_cpus0.iq.fu_full::SimdShaSigma2            0      0.00%     69.13% # attempts to use FU when none available
system.switch_cpus0.iq.fu_full::SimdShaSigma3            0      0.00%     69.13% # attempts to use FU when none available
system.switch_cpus0.iq.fu_full::SimdPredAlu            0      0.00%     69.13% # attempts to use FU when none available
system.switch_cpus0.iq.fu_full::MemRead       2428000     22.25%     91.38% # attempts to use FU when none available
system.switch_cpus0.iq.fu_full::MemWrite       940996      8.62%    100.00% # attempts to use FU when none available
system.switch_cpus0.iq.fu_full::FloatMemRead            0      0.00%    100.00% # attempts to use FU when none available
system.switch_cpus0.iq.fu_full::FloatMemWrite            0      0.00%    100.00% # attempts to use FU when none available
system.switch_cpus0.iq.fu_full::IprAccess            0      0.00%    100.00% # attempts to use FU when none available
system.switch_cpus0.iq.fu_full::InstPrefetch            0      0.00%    100.00% # attempts to use FU when none available
system.switch_cpus0.iq.int_alu_accesses     527957649                       # Number of integer alu accesses
system.switch_cpus0.iq.int_inst_queue_reads   1232468874                       # Number of integer instruction queue reads
system.switch_cpus0.iq.int_inst_queue_wakeup_accesses    509294331                       # Number of integer instruction queue wakeup accesses
system.switch_cpus0.iq.int_inst_queue_writes    802353496                       # Number of integer instruction queue writes
system.switch_cpus0.iq.iqInstsAdded         603564574                       # Number of instructions added to the IQ (excludes non-spec)
system.switch_cpus0.iq.iqInstsIssued        518823401                       # Number of instructions issued
system.switch_cpus0.iq.iqSquashedInstsExamined    199505089                       # Number of squashed instructions iterated over during squash; mainly for profiling
system.switch_cpus0.iq.iqSquashedInstsIssued      1402585                       # Number of squashed instructions issued
system.switch_cpus0.iq.iqSquashedOperandsExamined    306400170                       # Number of squashed operands that are examined and possibly removed from graph
system.switch_cpus0.iq.issued_per_cycle::samples    183426990                       # Number of insts issued each cycle
system.switch_cpus0.iq.issued_per_cycle::mean     2.828501                       # Number of insts issued each cycle
system.switch_cpus0.iq.issued_per_cycle::stdev     2.556797                       # Number of insts issued each cycle
system.switch_cpus0.iq.issued_per_cycle::underflows            0      0.00%      0.00% # Number of insts issued each cycle
system.switch_cpus0.iq.issued_per_cycle::0     55605722     30.31%     30.31% # Number of insts issued each cycle
system.switch_cpus0.iq.issued_per_cycle::1     16007897      8.73%     39.04% # Number of insts issued each cycle
system.switch_cpus0.iq.issued_per_cycle::2     19950465     10.88%     49.92% # Number of insts issued each cycle
system.switch_cpus0.iq.issued_per_cycle::3     20314252     11.07%     60.99% # Number of insts issued each cycle
system.switch_cpus0.iq.issued_per_cycle::4     19489777     10.63%     71.62% # Number of insts issued each cycle
system.switch_cpus0.iq.issued_per_cycle::5     16539069      9.02%     80.64% # Number of insts issued each cycle
system.switch_cpus0.iq.issued_per_cycle::6     15995331      8.72%     89.36% # Number of insts issued each cycle
system.switch_cpus0.iq.issued_per_cycle::7     10850437      5.92%     95.27% # Number of insts issued each cycle
system.switch_cpus0.iq.issued_per_cycle::8      8674040      4.73%    100.00% # Number of insts issued each cycle
system.switch_cpus0.iq.issued_per_cycle::overflows            0      0.00%    100.00% # Number of insts issued each cycle
system.switch_cpus0.iq.issued_per_cycle::min_value            0                       # Number of insts issued each cycle
system.switch_cpus0.iq.issued_per_cycle::max_value            8                       # Number of insts issued each cycle
system.switch_cpus0.iq.issued_per_cycle::total    183426990                       # Number of insts issued each cycle
system.switch_cpus0.iq.rate                  2.826537                       # Inst issue rate
system.switch_cpus0.iq.vec_alu_accesses             0                       # Number of vector alu accesses
system.switch_cpus0.iq.vec_inst_queue_reads            0                       # Number of vector instruction queue reads
system.switch_cpus0.iq.vec_inst_queue_wakeup_accesses            0                       # Number of vector instruction queue wakeup accesses
system.switch_cpus0.iq.vec_inst_queue_writes            0                       # Number of vector instruction queue writes
system.switch_cpus0.memDep0.conflictingLoads     14948381                       # Number of conflicting loads.
system.switch_cpus0.memDep0.conflictingStores      6601643                       # Number of conflicting stores.
system.switch_cpus0.memDep0.insertedLoads     94525032                       # Number of loads inserted to the mem dependence unit.
system.switch_cpus0.memDep0.insertedStores     43393893                       # Number of stores inserted to the mem dependence unit.
system.switch_cpus0.misc_regfile_reads      222471230                       # number of misc regfile reads
system.switch_cpus0.misc_regfile_writes             1                       # number of misc regfile writes
system.switch_cpus0.numCycles               183554436                       # number of cpu cycles simulated
system.switch_cpus0.numWorkItemsCompleted            0                       # number of work items this cpu completed
system.switch_cpus0.numWorkItemsStarted             0                       # number of work items this cpu started
system.switch_cpus0.timesIdled                   3448                       # Number of times that the entire CPU went into an idle state and unscheduled itself
system.switch_cpus1.cc_regfile_reads        223592974                       # number of cc regfile reads
system.switch_cpus1.cc_regfile_writes       199536125                       # number of cc regfile writes
system.switch_cpus1.committedInsts          249984420                       # Number of Instructions Simulated
system.switch_cpus1.committedOps            404111551                       # Number of Ops (including micro ops) Simulated
system.switch_cpus1.cpi                      0.734264                       # CPI: Cycles Per Instruction
system.switch_cpus1.cpi_total                0.734264                       # CPI: Total CPI of All Threads
system.switch_cpus1.fp_regfile_reads           230369                       # number of floating regfile reads
system.switch_cpus1.fp_regfile_writes          230477                       # number of floating regfile writes
system.switch_cpus1.idleCycles                 129022                       # Total number of cycles that the CPU has spent unscheduled due to idling
system.switch_cpus1.iew.branchMispredicts      3352601                       # Number of branch mispredicts detected at execute
system.switch_cpus1.iew.exec_branches        44010897                       # Number of branches executed
system.switch_cpus1.iew.exec_nop                    0                       # number of nop insts executed
system.switch_cpus1.iew.exec_rate            2.790053                       # Inst execution rate
system.switch_cpus1.iew.exec_refs           118421008                       # number of memory reference insts executed
system.switch_cpus1.iew.exec_stores          36236224                       # Number of stores executed
system.switch_cpus1.iew.exec_swp                    0                       # number of swp insts executed
system.switch_cpus1.iew.iewBlockCycles       26292396                       # Number of cycles IEW is blocking
system.switch_cpus1.iew.iewDispLoadInsts     94526630                       # Number of dispatched load instructions
system.switch_cpus1.iew.iewDispNonSpecInsts            0                       # Number of dispatched non-speculative instructions
system.switch_cpus1.iew.iewDispSquashedInsts        85061                       # Number of squashed instructions skipped by dispatch
system.switch_cpus1.iew.iewDispStoreInsts     43402009                       # Number of dispatched store instructions
system.switch_cpus1.iew.iewDispatchedInsts    603625326                       # Number of instructions dispatched to IQ
system.switch_cpus1.iew.iewExecLoadInsts     82184784                       # Number of load instructions executed
system.switch_cpus1.iew.iewExecSquashedInsts      6766660                       # Number of squashed instructions skipped in execute
system.switch_cpus1.iew.iewExecutedInsts    512126553                       # Number of executed instructions
system.switch_cpus1.iew.iewIQFullEvents         46698                       # Number of times the IQ has become full, causing a stall
system.switch_cpus1.iew.iewIdleCycles               0                       # Number of cycles IEW is idle
system.switch_cpus1.iew.iewLSQFullEvents        53576                       # Number of times the LSQ has become full, causing a stall
system.switch_cpus1.iew.iewSquashCycles       3015298                       # Number of cycles IEW is squashing
system.switch_cpus1.iew.iewUnblockCycles       114341                       # Number of cycles IEW is unblocking
system.switch_cpus1.iew.memOrderViolationEvents       109673                       # Number of memory order violations
system.switch_cpus1.iew.predictedNotTakenIncorrect      1670925                       # Number of branches that were predicted not taken incorrectly
system.switch_cpus1.iew.predictedTakenIncorrect      1681676                       # Number of branches that were predicted taken incorrectly
system.switch_cpus1.iew.wb_consumers        664506622                       # num instructions consuming a value
system.switch_cpus1.iew.wb_count            509821856                       # cumulative count of insts written-back
system.switch_cpus1.iew.wb_fanout            0.583373                       # average fanout of values written-back
system.switch_cpus1.iew.wb_producers        387655235                       # num instructions producing a value
system.switch_cpus1.iew.wb_rate              2.777497                       # insts written-back per cycle
system.switch_cpus1.iew.wb_sent             511439386                       # cumulative count of insts sent to commit
system.switch_cpus1.int_regfile_reads       795729316                       # number of integer regfile reads
system.switch_cpus1.int_regfile_writes      434581611                       # number of integer regfile writes
system.switch_cpus1.ipc                      1.361909                       # IPC: Instructions Per Cycle
system.switch_cpus1.ipc_total                1.361909                       # IPC: Total IPC of All Threads
system.switch_cpus1.iq.FU_type_0::No_OpClass      1321323      0.25%      0.25% # Type of FU issued
system.switch_cpus1.iq.FU_type_0::IntAlu    392261037     75.60%     75.85% # Type of FU issued
system.switch_cpus1.iq.FU_type_0::IntMult      3433347      0.66%     76.51% # Type of FU issued
system.switch_cpus1.iq.FU_type_0::IntDiv       893706      0.17%     76.68% # Type of FU issued
system.switch_cpus1.iq.FU_type_0::FloatAdd            0      0.00%     76.68% # Type of FU issued
system.switch_cpus1.iq.FU_type_0::FloatCmp            0      0.00%     76.68% # Type of FU issued
system.switch_cpus1.iq.FU_type_0::FloatCvt            0      0.00%     76.68% # Type of FU issued
system.switch_cpus1.iq.FU_type_0::FloatMult            0      0.00%     76.68% # Type of FU issued
system.switch_cpus1.iq.FU_type_0::FloatMultAcc            0      0.00%     76.68% # Type of FU issued
system.switch_cpus1.iq.FU_type_0::FloatDiv            0      0.00%     76.68% # Type of FU issued
system.switch_cpus1.iq.FU_type_0::FloatMisc            0      0.00%     76.68% # Type of FU issued
system.switch_cpus1.iq.FU_type_0::FloatSqrt            0      0.00%     76.68% # Type of FU issued
system.switch_cpus1.iq.FU_type_0::SimdAdd            0      0.00%     76.68% # Type of FU issued
system.switch_cpus1.iq.FU_type_0::SimdAddAcc            0      0.00%     76.68% # Type of FU issued
system.switch_cpus1.iq.FU_type_0::SimdAlu            0      0.00%     76.68% # Type of FU issued
system.switch_cpus1.iq.FU_type_0::SimdCmp            0      0.00%     76.68% # Type of FU issued
system.switch_cpus1.iq.FU_type_0::SimdCvt            0      0.00%     76.68% # Type of FU issued
system.switch_cpus1.iq.FU_type_0::SimdMisc            0      0.00%     76.68% # Type of FU issued
system.switch_cpus1.iq.FU_type_0::SimdMult            0      0.00%     76.68% # Type of FU issued
system.switch_cpus1.iq.FU_type_0::SimdMultAcc            0      0.00%     76.68% # Type of FU issued
system.switch_cpus1.iq.FU_type_0::SimdShift            0      0.00%     76.68% # Type of FU issued
system.switch_cpus1.iq.FU_type_0::SimdShiftAcc            0      0.00%     76.68% # Type of FU issued
system.switch_cpus1.iq.FU_type_0::SimdDiv            0      0.00%     76.68% # Type of FU issued
system.switch_cpus1.iq.FU_type_0::SimdSqrt            0      0.00%     76.68% # Type of FU issued
system.switch_cpus1.iq.FU_type_0::SimdFloatAdd            0      0.00%     76.68% # Type of FU issued
system.switch_cpus1.iq.FU_type_0::SimdFloatAlu            0      0.00%     76.68% # Type of FU issued
system.switch_cpus1.iq.FU_type_0::SimdFloatCmp            0      0.00%     76.68% # Type of FU issued
system.switch_cpus1.iq.FU_type_0::SimdFloatCvt            0      0.00%     76.68% # Type of FU issued
system.switch_cpus1.iq.FU_type_0::SimdFloatDiv            0      0.00%     76.68% # Type of FU issued
system.switch_cpus1.iq.FU_type_0::SimdFloatMisc            0      0.00%     76.68% # Type of FU issued
system.switch_cpus1.iq.FU_type_0::SimdFloatMult            0      0.00%     76.68% # Type of FU issued
system.switch_cpus1.iq.FU_type_0::SimdFloatMultAcc            0      0.00%     76.68% # Type of FU issued
system.switch_cpus1.iq.FU_type_0::SimdFloatSqrt            0      0.00%     76.68% # Type of FU issued
system.switch_cpus1.iq.FU_type_0::SimdReduceAdd            0      0.00%     76.68% # Type of FU issued
system.switch_cpus1.iq.FU_type_0::SimdReduceAlu            0      0.00%     76.68% # Type of FU issued
system.switch_cpus1.iq.FU_type_0::SimdReduceCmp            0      0.00%     76.68% # Type of FU issued
system.switch_cpus1.iq.FU_type_0::SimdFloatReduceAdd            0      0.00%     76.68% # Type of FU issued
system.switch_cpus1.iq.FU_type_0::SimdFloatReduceCmp            0      0.00%     76.68% # Type of FU issued
system.switch_cpus1.iq.FU_type_0::SimdAes            0      0.00%     76.68% # Type of FU issued
system.switch_cpus1.iq.FU_type_0::SimdAesMix            0      0.00%     76.68% # Type of FU issued
system.switch_cpus1.iq.FU_type_0::SimdSha1Hash            0      0.00%     76.68% # Type of FU issued
[...]
system.switch_cpus3.commit.numCommittedDist::1     32293726     20.62%     50.96% # Number of insts commited each cycle
system.switch_cpus3.commit.numCommittedDist::2     17358408     11.08%     62.04% # Number of insts commited each cycle
system.switch_cpus3.commit.numCommittedDist::3     16219398     10.36%     72.40% # Number of insts commited each cycle
system.switch_cpus3.commit.numCommittedDist::4      8758628      5.59%     77.99% # Number of insts commited each cycle
system.switch_cpus3.commit.numCommittedDist::5      4361382      2.78%     80.77% # Number of insts commited each cycle
system.switch_cpus3.commit.numCommittedDist::6      3362485      2.15%     82.92% # Number of insts commited each cycle
system.switch_cpus3.commit.numCommittedDist::7      2535544      1.62%     84.54% # Number of insts commited each cycle
system.switch_cpus3.commit.numCommittedDist::8     24212874     15.46%    100.00% # Number of insts commited each cycle
system.switch_cpus3.commit.numCommittedDist::overflows            0      0.00%    100.00% # Number of insts commited each cycle
system.switch_cpus3.commit.numCommittedDist::min_value            0                       # Number of insts commited each cycle
system.switch_cpus3.commit.numCommittedDist::max_value            8                       # Number of insts commited each cycle
system.switch_cpus3.commit.numCommittedDist::total    156611541                       # Number of insts commited each cycle
system.switch_cpus3.commit.instsCommitted    250000000                       # Number of instructions committed
system.switch_cpus3.commit.opsCommitted     404136868                       # Number of ops (including micro ops) committed
system.switch_cpus3.commit.memRefs           93132169                       # Number of memory references committed
system.switch_cpus3.commit.loads             63251494                       # Number of loads committed
system.switch_cpus3.commit.amos                     0                       # Number of atomic instructions committed
system.switch_cpus3.commit.membars                  0                       # Number of memory barriers committed
system.switch_cpus3.commit.branches          36138617                       # Number of branches committed
system.switch_cpus3.commit.vector                   0                       # Number of committed Vector instructions.
system.switch_cpus3.commit.floating            459072                       # Number of committed floating point instructions.
system.switch_cpus3.commit.integer          402752498                       # Number of committed integer instructions.
system.switch_cpus3.commit.functionCalls      4796486                       # Number of function calls committed.
system.switch_cpus3.commit.committedInstType_0::No_OpClass       946334      0.23%      0.23% # Class of committed instruction
system.switch_cpus3.commit.committedInstType_0::IntAlu    305869973     75.68%     75.92% # Class of committed instruction
system.switch_cpus3.commit.committedInstType_0::IntMult      3318339      0.82%     76.74% # Class of committed instruction
system.switch_cpus3.commit.committedInstType_0::IntDiv       870053      0.22%     76.96% # Class of committed instruction
system.switch_cpus3.commit.committedInstType_0::FloatAdd            0      0.00%     76.96% # Class of committed instruction
system.switch_cpus3.commit.committedInstType_0::FloatCmp            0      0.00%     76.96% # Class of committed instruction
system.switch_cpus3.commit.committedInstType_0::FloatCvt            0      0.00%     76.96% # Class of committed instruction
system.switch_cpus3.commit.committedInstType_0::FloatMult            0      0.00%     76.96% # Class of committed instruction
system.switch_cpus3.commit.committedInstType_0::FloatMultAcc            0      0.00%     76.96% # Class of committed instruction
system.switch_cpus3.commit.committedInstType_0::FloatDiv            0      0.00%     76.96% # Class of committed instruction
system.switch_cpus3.commit.committedInstType_0::FloatMisc            0      0.00%     76.96% # Class of committed instruction
system.switch_cpus3.commit.committedInstType_0::FloatSqrt            0      0.00%     76.96% # Class of committed instruction
system.switch_cpus3.commit.committedInstType_0::SimdAdd            0      0.00%     76.96% # Class of committed instruction
system.switch_cpus3.commit.committedInstType_0::SimdAddAcc            0      0.00%     76.96% # Class of committed instruction
system.switch_cpus3.commit.committedInstType_0::SimdAlu            0      0.00%     76.96% # Class of committed instruction
system.switch_cpus3.commit.committedInstType_0::SimdCmp            0      0.00%     76.96% # Class of committed instruction
system.switch_cpus3.commit.committedInstType_0::SimdCvt            0      0.00%     76.96% # Class of committed instruction
system.switch_cpus3.commit.committedInstType_0::SimdMisc            0      0.00%     76.96% # Class of committed instruction
system.switch_cpus3.commit.committedInstType_0::SimdMult            0      0.00%     76.96% # Class of committed instruction
system.switch_cpus3.commit.committedInstType_0::SimdMultAcc            0      0.00%     76.96% # Class of committed instruction
system.switch_cpus3.commit.committedInstType_0::SimdShift            0      0.00%     76.96% # Class of committed instruction
system.switch_cpus3.commit.committedInstType_0::SimdShiftAcc            0      0.00%     76.96% # Class of committed instruction
system.switch_cpus3.commit.committedInstType_0::SimdDiv            0      0.00%     76.96% # Class of committed instruction
system.switch_cpus3.commit.committedInstType_0::SimdSqrt            0      0.00%     76.96% # Class of committed instruction
system.switch_cpus3.commit.committedInstType_0::SimdFloatAdd            0      0.00%     76.96% # Class of committed instruction
system.switch_cpus3.commit.committedInstType_0::SimdFloatAlu            0      0.00%     76.96% # Class of committed instruction
system.switch_cpus3.commit.committedInstType_0::SimdFloatCmp            0      0.00%     76.96% # Class of committed instruction
system.switch_cpus3.commit.committedInstType_0::SimdFloatCvt            0      0.00%     76.96% # Class of committed instruction
system.switch_cpus3.commit.committedInstType_0::SimdFloatDiv            0      0.00%     76.96% # Class of committed instruction
system.switch_cpus3.commit.committedInstType_0::SimdFloatMisc            0      0.00%     76.96% # Class of committed instruction
system.switch_cpus3.commit.committedInstType_0::SimdFloatMult            0      0.00%     76.96% # Class of committed instruction
system.switch_cpus3.commit.committedInstType_0::SimdFloatMultAcc            0      0.00%     76.96% # Class of committed instruction
system.switch_cpus3.commit.committedInstType_0::SimdFloatSqrt            0      0.00%     76.96% # Class of committed instruction
system.switch_cpus3.commit.committedInstType_0::SimdReduceAdd            0      0.00%     76.96% # Class of committed instruction
system.switch_cpus3.commit.committedInstType_0::SimdReduceAlu            0      0.00%     76.96% # Class of committed instruction
system.switch_cpus3.commit.committedInstType_0::SimdReduceCmp            0      0.00%     76.96% # Class of committed instruction
system.switch_cpus3.commit.committedInstType_0::SimdFloatReduceAdd            0      0.00%     76.96% # Class of committed instruction
system.switch_cpus3.commit.committedInstType_0::SimdFloatReduceCmp            0      0.00%     76.96% # Class of committed instruction
system.switch_cpus3.commit.committedInstType_0::SimdAes            0      0.00%     76.96% # Class of committed instruction
system.switch_cpus3.commit.committedInstType_0::SimdAesMix            0      0.00%     76.96% # Class of committed instruction
system.switch_cpus3.commit.committedInstType_0::SimdSha1Hash            0      0.00%     76.96% # Class of committed instruction
system.switch_cpus3.commit.committedInstType_0::SimdSha1Hash2            0      0.00%     76.96% # Class of committed instruction
system.switch_cpus3.commit.committedInstType_0::SimdSha256Hash            0      0.00%     76.96% # Class of committed instruction
system.switch_cpus3.commit.committedInstType_0::SimdSha256Hash2            0      0.00%     76.96% # Class of committed instruction
system.switch_cpus3.commit.committedInstType_0::SimdShaSigma2            0      0.00%     76.96% # Class of committed instruction
system.switch_cpus3.commit.committedInstType_0::SimdShaSigma3            0      0.00%     76.96% # Class of committed instruction
system.switch_cpus3.commit.committedInstType_0::SimdPredAlu            0      0.00%     76.96% # Class of committed instruction
system.switch_cpus3.commit.committedInstType_0::MemRead     63021958     15.59%     92.55% # Class of committed instruction
system.switch_cpus3.commit.committedInstType_0::MemWrite     29651139      7.34%     99.89% # Class of committed instruction
system.switch_cpus3.commit.committedInstType_0::FloatMemRead       229536      0.06%     99.94% # Class of committed instruction
system.switch_cpus3.commit.committedInstType_0::FloatMemWrite       229536      0.06%    100.00% # Class of committed instruction
system.switch_cpus3.commit.committedInstType_0::IprAccess            0      0.00%    100.00% # Class of committed instruction
system.switch_cpus3.commit.committedInstType_0::InstPrefetch            0      0.00%    100.00% # Class of committed instruction
system.switch_cpus3.commit.committedInstType_0::total    404136868                       # Class of committed instruction
system.switch_cpus3.commit.commitEligibleSamples     24212874                       # number cycles where commit BW limit reached
system.switch_cpus3.decode.idleCycles        17776860                       # Number of cycles decode is idle
system.switch_cpus3.decode.blockedCycles     72024990                       # Number of cycles decode is blocked
system.switch_cpus3.decode.runCycles         68522703                       # Number of cycles decode is running
system.switch_cpus3.decode.unblockCycles     22083237                       # Number of cycles decode is unblocking
system.switch_cpus3.decode.squashCycles       3014474                       # Number of cycles decode is squashing
system.switch_cpus3.decode.branchResolved     30469013                       # Number of times decode resolved a  branch
system.switch_cpus3.decode.branchMispred       254269                       # Number of times decode detected a branch misprediction
system.switch_cpus3.decode.decodedInsts     651924879                       # Number of instructions handled by decode
system.switch_cpus3.decode.squashedInsts      1163583                       # Number of squashed instructions handled by decode
system.switch_cpus3.dtb.rdAccesses           82207137                       # TLB accesses on read requests
system.switch_cpus3.dtb.wrAccesses           36239571                       # TLB accesses on write requests
system.switch_cpus3.dtb.rdMisses                57727                       # TLB misses on read requests
system.switch_cpus3.dtb.wrMisses                 1470                       # TLB misses on write requests
system.switch_cpus3.dtb.walker.power_state.pwrStateResidencyTicks::UNDEFINED 16607506270932                       # Cumulative time (in ticks) in various power states
system.switch_cpus3.fetch.icacheStallCycles      5121813                       # Number of cycles fetch is stalled on an Icache miss
system.switch_cpus3.fetch.insts             443783313                       # Number of instructions fetch has processed
system.switch_cpus3.fetch.branches           65120433                       # Number of branches that fetch encountered
system.switch_cpus3.fetch.predictedBranches     41418796                       # Number of branches that fetch has predicted taken
system.switch_cpus3.fetch.cycles            175037267                       # Number of cycles fetch has run and was not squashing or blocked
system.switch_cpus3.fetch.squashCycles        6526050                       # Number of cycles fetch has spent squashing
system.switch_cpus3.fetch.miscStallCycles           22                       # Number of cycles fetch has spent waiting on interrupts,or bad addresses, or out of MSHRs
system.switch_cpus3.fetch.pendingTrapStallCycles          140                       # Number of stall cycles due to pending traps
system.switch_cpus3.fetch.cacheLines         66254055                       # Number of cache lines fetched
system.switch_cpus3.fetch.icacheSquashes        68287                       # Number of outstanding Icache misses that were squashed
system.switch_cpus3.fetch.nisnDist::samples    183422267                       # Number of instructions fetched each cycle (Total)
system.switch_cpus3.fetch.nisnDist::mean     3.902011                       # Number of instructions fetched each cycle (Total)
system.switch_cpus3.fetch.nisnDist::stdev     3.360886                       # Number of instructions fetched each cycle (Total)
system.switch_cpus3.fetch.nisnDist::underflows            0      0.00%      0.00% # Number of instructions fetched each cycle (Total)
system.switch_cpus3.fetch.nisnDist::0        59938611     32.68%     32.68% # Number of instructions fetched each cycle (Total)
system.switch_cpus3.fetch.nisnDist::1         9085996      4.95%     37.63% # Number of instructions fetched each cycle (Total)
system.switch_cpus3.fetch.nisnDist::2         8910219      4.86%     42.49% # Number of instructions fetched each cycle (Total)
system.switch_cpus3.fetch.nisnDist::3         8277982      4.51%     47.00% # Number of instructions fetched each cycle (Total)
system.switch_cpus3.fetch.nisnDist::4         9163234      5.00%     52.00% # Number of instructions fetched each cycle (Total)
system.switch_cpus3.fetch.nisnDist::5        16621380      9.06%     61.06% # Number of instructions fetched each cycle (Total)
system.switch_cpus3.fetch.nisnDist::6         9885031      5.39%     66.45% # Number of instructions fetched each cycle (Total)
system.switch_cpus3.fetch.nisnDist::7         7413187      4.04%     70.49% # Number of instructions fetched each cycle (Total)
system.switch_cpus3.fetch.nisnDist::8        54126627     29.51%    100.00% # Number of instructions fetched each cycle (Total)
system.switch_cpus3.fetch.nisnDist::overflows            0      0.00%    100.00% # Number of instructions fetched each cycle (Total)
system.switch_cpus3.fetch.nisnDist::min_value            0                       # Number of instructions fetched each cycle (Total)
system.switch_cpus3.fetch.nisnDist::max_value            8                       # Number of instructions fetched each cycle (Total)
system.switch_cpus3.fetch.nisnDist::total    183422267                       # Number of instructions fetched each cycle (Total)
system.switch_cpus3.fetch.branchRate         0.354774                       # Number of branch fetches per cycle
system.switch_cpus3.fetch.rate               2.417720                       # Number of inst fetches per cycle
system.switch_cpus3.itb.rdAccesses                  0                       # TLB accesses on read requests
system.switch_cpus3.itb.wrAccesses           66254077                       # TLB accesses on write requests
system.switch_cpus3.itb.rdMisses                    0                       # TLB misses on read requests
system.switch_cpus3.itb.wrMisses                   48                       # TLB misses on write requests
system.switch_cpus3.itb.walker.power_state.pwrStateResidencyTicks::UNDEFINED 16607506270932                       # Cumulative time (in ticks) in various power states
system.switch_cpus3.lsq0.forwLoads           13319064                       # Number of loads that had data forwarded from stores
system.switch_cpus3.lsq0.squashedLoads       31310191                       # Number of loads squashed
system.switch_cpus3.lsq0.ignoredResponses        50641                       # Number of memory responses ignored because the instruction is squashed
system.switch_cpus3.lsq0.memOrderViolation       110237                       # Number of memory ordering violations
system.switch_cpus3.lsq0.squashedStores      13530471                       # Number of stores squashed
system.switch_cpus3.lsq0.rescheduledLoads         4018                       # Number of loads that were rescheduled
system.switch_cpus3.lsq0.blockedByCache             0                       # Number of times an access to memory failed due to the cache being blocked
system.switch_cpus3.power_state.pwrStateResidencyTicks::OFF  61123637511                       # Cumulative time (in ticks) in various power states
system.switch_cpus3.rename.squashCycles       3014474                       # Number of cycles rename is squashing
system.switch_cpus3.rename.idleCycles        26827937                       # Number of cycles rename is idle
system.switch_cpus3.rename.blockCycles       40197812                       # Number of cycles rename is blocking
system.switch_cpus3.rename.serializeStallCycles            0                       # count of cycles rename stalledfor serializing inst
system.switch_cpus3.rename.runCycles         81130770                       # Number of cycles rename is running
system.switch_cpus3.rename.unblockCycles     32251271                       # Number of cycles rename is unblocking
system.switch_cpus3.rename.renamedInsts     634307778                       # Number of instructions processed by rename
system.switch_cpus3.rename.ROBFullEvents       877979                       # Number of times rename has blocked due to ROB full
system.switch_cpus3.rename.IQFullEvents      25426694                       # Number of times rename has blocked due to IQ full
system.switch_cpus3.rename.LQFullEvents       1690738                       # Number of times rename has blocked due to LQ full
system.switch_cpus3.rename.SQFullEvents        274467                       # Number of times rename has blocked due to SQ full
system.switch_cpus3.rename.fullRegistersEvents           46                       # Number of times there has been no free registers
system.switch_cpus3.rename.renamedOperands    817243699                       # Number of destination operands rename has renamed
system.switch_cpus3.rename.lookups         1623586954                       # Number of register rename lookups that rename has made
system.switch_cpus3.rename.intLookups      1037987935                       # Number of integer rename lookups
system.switch_cpus3.rename.fpLookups           324336                       # Number of floating rename lookups
system.switch_cpus3.rename.committedMaps    521179499                       # Number of HB maps that are committed
system.switch_cpus3.rename.undoneMaps       296064050                       # Number of HB maps that are undone due to squashing
system.switch_cpus3.rename.serializing              0                       # count of serializing insts renamed
system.switch_cpus3.rename.tempSerializing            0                       # count of temporary serializing insts renamed
system.switch_cpus3.rename.skidInsts         84148465                       # count of insts added to the skid buffer
system.switch_cpus3.rob.reads               736189943                       # The number of ROB reads
system.switch_cpus3.rob.writes             1234468180                       # The number of ROB writes
system.switch_cpus3.thread0.numInsts        250000000                       # Number of Instructions committed
system.switch_cpus3.thread0.numOps          404136868                       # Number of Ops committed
system.switch_cpus3.thread0.numMemRefs              0                       # Number of Memory References
system.voltage_domain.voltage                       1                       # Voltage in Volts

---------- End Simulation Statistics   ----------
