Command line:
./runscript_pride.sh povray RFM1.BR1.4C 4 2017 --rh_defense --rh_mitigation=RFM --rh_rfm_per_trefi=1 --rh_rfm_blast_radius=1 --rh_rfm_maxacts_per_trefi=79
Global frequency set at 1000000000000 ticks per second
RFM details - rfm_act_threshold: 79, blast_radius: 1, delay_per_rfm: 175000 ps. sample_rate: 0.012500
RH Defense config: RFM, Bus Delay: 0, rfms_per_trefi: 1, rfm_act_threshold: 79, blast_radius: 1,rfm_delay_per_act: 45000 ps.
DRAM config: RowsPerBank: 65536, BanksPerRank: 32, RanksPerChannel: 1
warn: Sockets disabled, not accepting gdb connections
warn: CoherentXBar system.cpu0.mmucache.mmubus has no snooping ports attached!
warn: CoherentXBar system.cpu1.mmucache.mmubus has no snooping ports attached!
warn: CoherentXBar system.cpu2.mmucache.mmubus has no snooping ports attached!
warn: CoherentXBar system.cpu3.mmucache.mmubus has no snooping ports attached!
warn: Checkpoints for file descriptors currently do not work.
warn: Checkpoints for file descriptors currently do not work.
warn: Checkpoints for file descriptors currently do not work.
warn: Checkpoints for file descriptors currently do not work.
gem5 Simulator System.  http://gem5.org
gem5 is copyrighted software; use the --copyright option for details.

gem5 version 20.1.0.5
gem5 compiled Jul 12 2024 12:42:38
gem5 started Jul 31 2024 15:37:59
gem5 executing on a07dda8b130c, pid 238671
command line: /home/user/PrIDE/performance/gem5/build/X86/gem5.opt --outdir=/home/user/PrIDE/performance/gem5/stats/pride_multiprogram_16GBmem_250Mn.SPEC2017.C4/RFM1.BR1.4C/povray /home/user/PrIDE/performance/gem5/configs/example/se_rq_spec_config_multicore.py --redirects /lib64=/home/utils/gcc-6.2.0/lib64 --benchmark=povray --benchmark_stdout=/home/user/PrIDE/performance/gem5/stats/pride_multiprogram_16GBmem_250Mn.SPEC2017.C4/RFM1.BR1.4C/povray/povray.out --benchmark_stderr=/home/user/PrIDE/performance/gem5/stats/pride_multiprogram_16GBmem_250Mn.SPEC2017.C4/RFM1.BR1.4C/povray/povray.err --spec-version=2017 --rh_defense --rh_mitigation=RFM --rh_rfm_per_trefi=1 --rh_rfm_blast_radius=1 --rh_rfm_maxacts_per_trefi=79 --num-cpus=4 --mem-size=16GB --mem-type=DDR5_2400_32x4 --mem-ranks=1 --mem-channels=1 --checkpoint-dir=/home/user/PrIDE/performance/gem5/cpts-DDR5/multiprogram_16GBmem_25Bn.SPEC2017.C4/povray-1-ref-x86 --checkpoint-restore=25000000000 --at-instruction --cpu-type DerivO3CPU --caches --l2cache --l1d_size=32kB --l1i_size=32kB --l2_size=256kB --l3_size=4MB --l1d_assoc=8 --l1i_assoc=8 --l2_assoc=16 --l3_assoc=16 --cpu-clock=3GHz --sys-clock=3GHz --maxinsts=250000000 --prog-interval=300Hz

info: Standard input is not a terminal, disabling listeners.
Benchmark- 0   povray
Selected benchmark
--> povray
CMD: ['/opt/spec2017/benchspec/CPU/511.povray_r/run/run_base_refrate_gem5_se-m64.0000/povray_r_base.gem5_se-m64', '/opt/spec2017/benchspec/CPU/511.povray_r/run/run_base_refrate_gem5_se-m64.0000/SPEC-benchmark-ref.ini']
CWD: /opt/spec2017/benchspec/CPU/511.povray_r/run/run_base_refrate_gem5_se-m64.0000/
Process stdout file: /home/user/PrIDE/performance/gem5/stats/pride_multiprogram_16GBmem_250Mn.SPEC2017.C4/RFM1.BR1.4C/povray/povray.out_0
Process stderr file: /home/user/PrIDE/performance/gem5/stats/pride_multiprogram_16GBmem_250Mn.SPEC2017.C4/RFM1.BR1.4C/povray/povray.err_0
Benchmark- 1   povray
Selected benchmark
--> povray
CMD: ['/opt/spec2017/benchspec/CPU/511.povray_r/run/run_base_refrate_gem5_se-m64.0000/povray_r_base.gem5_se-m64', '/opt/spec2017/benchspec/CPU/511.povray_r/run/run_base_refrate_gem5_se-m64.0000/SPEC-benchmark-ref.ini']
CWD: /opt/spec2017/benchspec/CPU/511.povray_r/run/run_base_refrate_gem5_se-m64.0000/
Process stdout file: /home/user/PrIDE/performance/gem5/stats/pride_multiprogram_16GBmem_250Mn.SPEC2017.C4/RFM1.BR1.4C/povray/povray.out_1
Process stderr file: /home/user/PrIDE/performance/gem5/stats/pride_multiprogram_16GBmem_250Mn.SPEC2017.C4/RFM1.BR1.4C/povray/povray.err_1
Benchmark- 2   povray
Selected benchmark
--> povray
CMD: ['/opt/spec2017/benchspec/CPU/511.povray_r/run/run_base_refrate_gem5_se-m64.0000/povray_r_base.gem5_se-m64', '/opt/spec2017/benchspec/CPU/511.povray_r/run/run_base_refrate_gem5_se-m64.0000/SPEC-benchmark-ref.ini']
CWD: /opt/spec2017/benchspec/CPU/511.povray_r/run/run_base_refrate_gem5_se-m64.0000/
Process stdout file: /home/user/PrIDE/performance/gem5/stats/pride_multiprogram_16GBmem_250Mn.SPEC2017.C4/RFM1.BR1.4C/povray/povray.out_2
Process stderr file: /home/user/PrIDE/performance/gem5/stats/pride_multiprogram_16GBmem_250Mn.SPEC2017.C4/RFM1.BR1.4C/povray/povray.err_2
Benchmark- 3   povray
Selected benchmark
--> povray
CMD: ['/opt/spec2017/benchspec/CPU/511.povray_r/run/run_base_refrate_gem5_se-m64.0000/povray_r_base.gem5_se-m64', '/opt/spec2017/benchspec/CPU/511.povray_r/run/run_base_refrate_gem5_se-m64.0000/SPEC-benchmark-ref.ini']
CWD: /opt/spec2017/benchspec/CPU/511.povray_r/run/run_base_refrate_gem5_se-m64.0000/
Process stdout file: /home/user/PrIDE/performance/gem5/stats/pride_multiprogram_16GBmem_250Mn.SPEC2017.C4/RFM1.BR1.4C/povray/povray.out_3
Process stderr file: /home/user/PrIDE/performance/gem5/stats/pride_multiprogram_16GBmem_250Mn.SPEC2017.C4/RFM1.BR1.4C/povray/povray.err_3
Workload-0: 
['/opt/spec2017/benchspec/CPU/511.povray_r/run/run_base_refrate_gem5_se-m64.0000/povray_r_base.gem5_se-m64', '/opt/spec2017/benchspec/CPU/511.povray_r/run/run_base_refrate_gem5_se-m64.0000/SPEC-benchmark-ref.ini']
Workload-1: 
['/opt/spec2017/benchspec/CPU/511.povray_r/run/run_base_refrate_gem5_se-m64.0000/povray_r_base.gem5_se-m64', '/opt/spec2017/benchspec/CPU/511.povray_r/run/run_base_refrate_gem5_se-m64.0000/SPEC-benchmark-ref.ini']
Workload-2: 
['/opt/spec2017/benchspec/CPU/511.povray_r/run/run_base_refrate_gem5_se-m64.0000/povray_r_base.gem5_se-m64', '/opt/spec2017/benchspec/CPU/511.povray_r/run/run_base_refrate_gem5_se-m64.0000/SPEC-benchmark-ref.ini']
Workload-3: 
['/opt/spec2017/benchspec/CPU/511.povray_r/run/run_base_refrate_gem5_se-m64.0000/povray_r_base.gem5_se-m64', '/opt/spec2017/benchspec/CPU/511.povray_r/run/run_base_refrate_gem5_se-m64.0000/SPEC-benchmark-ref.ini']
defense_enable:  True  detector:  MG  mitigation:  RFM  threshold:  800
mg_entries:  1700
rfm_maxacts_per_trefi:  79 rfm_per_trefi:  1 rfm_blast_radius:  1
Switch at curTick count:10000
warn: membus.master is deprecated. `master` is now called `mem_side_ports`
warn: No dot file generated. Please install pydot to generate the dot file and pdf.
info: Entering event queue @ 17895005580168.  Starting simulation...
info: Entering event queue @ 17895005590168.  Starting simulation...
warn: PowerState: Already in the requested power state, request ignored
Switched CPUS @ tick 17895005590168
switching cpus
**** REAL SIMULATION ****
info: Entering event queue @ 17895005590824.  Starting simulation...
17898338913501: Event_285: system.switch_cpus3 progress event, total committed:44485255, progress insts committed: 44485255, IPC: 04.44408
17898338913501: Event_284: system.switch_cpus2 progress event, total committed:44485345, progress insts committed: 44485345, IPC: 04.44409
17898338913501: Event_283: system.switch_cpus1 progress event, total committed:44487184, progress insts committed: 44487184, IPC: 04.44427
17898338913501: Event_282: system.switch_cpus0 progress event, total committed:44486339, progress insts committed: 44486339, IPC: 04.44419
17901672246834: Event_282: system.switch_cpus0 progress event, total committed:89851853, progress insts committed: 45365514, IPC: 04.53201
17901672246834: Event_283: system.switch_cpus1 progress event, total committed:89852146, progress insts committed: 45364962, IPC: 04.53196
17901672246834: Event_284: system.switch_cpus2 progress event, total committed:89851574, progress insts committed: 45366229, IPC: 04.53209
17901672246834: Event_285: system.switch_cpus3 progress event, total committed:89852934, progress insts committed: 45367679, IPC: 04.53223
17905005580167: Event_285: system.switch_cpus3 progress event, total committed:135356760, progress insts committed: 45503826, IPC: 04.54583
17905005580167: Event_284: system.switch_cpus2 progress event, total committed:135357887, progress insts committed: 45506313, IPC: 04.54608
17905005580167: Event_283: system.switch_cpus1 progress event, total committed:135356225, progress insts committed: 45504079, IPC: 04.54586
17905005580167: Event_282: system.switch_cpus0 progress event, total committed:135356712, progress insts committed: 45504859, IPC: 04.54594
17908338913500: Event_282: system.switch_cpus0 progress event, total committed:180829709, progress insts committed: 45472997, IPC: 04.54275
17908338913500: Event_283: system.switch_cpus1 progress event, total committed:180829079, progress insts committed: 45472854, IPC: 04.54274
17908338913500: Event_284: system.switch_cpus2 progress event, total committed:180827353, progress insts committed: 45469466, IPC: 004.5424
17908338913500: Event_285: system.switch_cpus3 progress event, total committed:180826560, progress insts committed: 45469800, IPC: 04.54243
17911672246833: Event_285: system.switch_cpus3 progress event, total committed:226478923, progress insts committed: 45652363, IPC: 04.56067
17911672246833: Event_284: system.switch_cpus2 progress event, total committed:226483183, progress insts committed: 45655830, IPC: 04.56102
17911672246833: Event_283: system.switch_cpus1 progress event, total committed:226490788, progress insts committed: 45661709, IPC: 004.5616
17911672246833: Event_282: system.switch_cpus0 progress event, total committed:226490197, progress insts committed: 45660488, IPC: 04.56148
17915005580166: Event_282: system.switch_cpus0 progress event, total committed:272191004, progress insts committed: 45700807, IPC: 04.56551
17915005580166: Event_283: system.switch_cpus1 progress event, total committed:272193321, progress insts committed: 45702533, IPC: 04.56568
17915005580166: Event_284: system.switch_cpus2 progress event, total committed:272170920, progress insts committed: 45687737, IPC: 004.5642
17915005580166: Event_285: system.switch_cpus3 progress event, total committed:272170747, progress insts committed: 45691824, IPC: 04.56461
17918338913499: Event_285: system.switch_cpus3 progress event, total committed:317937573, progress insts committed: 45766826, IPC: 04.57211
17918338913499: Event_284: system.switch_cpus2 progress event, total committed:317937252, progress insts committed: 45766332, IPC: 04.57206
17918338913499: Event_283: system.switch_cpus1 progress event, total committed:317963894, progress insts committed: 45770573, IPC: 04.57248
17918338913499: Event_282: system.switch_cpus0 progress event, total committed:317964138, progress insts committed: 45773134, IPC: 04.57274
17921672246832: Event_282: system.switch_cpus0 progress event, total committed:363020093, progress insts committed: 45055955, IPC: 04.50109
17921672246832: Event_283: system.switch_cpus1 progress event, total committed:363020137, progress insts committed: 45056243, IPC: 04.50112
17921672246832: Event_284: system.switch_cpus2 progress event, total committed:362986054, progress insts committed: 45048802, IPC: 04.50038
17921672246832: Event_285: system.switch_cpus3 progress event, total committed:362986030, progress insts committed: 45048457, IPC: 04.50034
17925005580165: Event_285: system.switch_cpus3 progress event, total committed:408091577, progress insts committed: 45105547, IPC: 04.50604
17925005580165: Event_284: system.switch_cpus2 progress event, total committed:408091682, progress insts committed: 45105628, IPC: 04.50605
17925005580165: Event_283: system.switch_cpus1 progress event, total committed:408131189, progress insts committed: 45111052, IPC: 04.50659
17925005580165: Event_282: system.switch_cpus0 progress event, total committed:408123860, progress insts committed: 45103767, IPC: 04.50587
Exiting @ tick 17928131711211 because a thread reached the max instruction count
