Command line:
./runscript_pride.sh imagick RFM5.BR1.4C 4 2017 --rh_defense --rh_mitigation=RFM --rh_rfm_per_trefi=5 --rh_rfm_blast_radius=1 --rh_rfm_maxacts_per_trefi=79
Global frequency set at 1000000000000 ticks per second
RFM details - rfm_act_threshold: 15, blast_radius: 1, delay_per_rfm: 175000 ps. sample_rate: 0.062500
RH Defense config: RFM, Bus Delay: 0, rfms_per_trefi: 5, rfm_act_threshold: 15, blast_radius: 1,rfm_delay_per_act: 45000 ps.
DRAM config: RowsPerBank: 65536, BanksPerRank: 32, RanksPerChannel: 1
warn: Sockets disabled, not accepting gdb connections
warn: CoherentXBar system.cpu0.mmucache.mmubus has no snooping ports attached!
warn: CoherentXBar system.cpu1.mmucache.mmubus has no snooping ports attached!
warn: CoherentXBar system.cpu2.mmucache.mmubus has no snooping ports attached!
warn: CoherentXBar system.cpu3.mmucache.mmubus has no snooping ports attached!
warn: Checkpoints for file descriptors currently do not work.
warn: Checkpoints for file descriptors currently do not work.
warn: Checkpoints for file descriptors currently do not work.
warn: Checkpoints for file descriptors currently do not work.
gem5 Simulator System.  http://gem5.org
gem5 is copyrighted software; use the --copyright option for details.

gem5 version 20.1.0.5
gem5 compiled Jul 12 2024 12:42:38
gem5 started Jul 31 2024 17:58:01
gem5 executing on a07dda8b130c, pid 241729
command line: /home/user/PrIDE/performance/gem5/build/X86/gem5.opt --outdir=/home/user/PrIDE/performance/gem5/stats/pride_multiprogram_16GBmem_250Mn.SPEC2017.C4/RFM5.BR1.4C/imagick /home/user/PrIDE/performance/gem5/configs/example/se_rq_spec_config_multicore.py --redirects /lib64=/home/utils/gcc-6.2.0/lib64 --benchmark=imagick --benchmark_stdout=/home/user/PrIDE/performance/gem5/stats/pride_multiprogram_16GBmem_250Mn.SPEC2017.C4/RFM5.BR1.4C/imagick/imagick.out --benchmark_stderr=/home/user/PrIDE/performance/gem5/stats/pride_multiprogram_16GBmem_250Mn.SPEC2017.C4/RFM5.BR1.4C/imagick/imagick.err --spec-version=2017 --rh_defense --rh_mitigation=RFM --rh_rfm_per_trefi=5 --rh_rfm_blast_radius=1 --rh_rfm_maxacts_per_trefi=79 --num-cpus=4 --mem-size=16GB --mem-type=DDR5_2400_32x4 --mem-ranks=1 --mem-channels=1 --checkpoint-dir=/home/user/PrIDE/performance/gem5/cpts-DDR5/multiprogram_16GBmem_25Bn.SPEC2017.C4/imagick-1-ref-x86 --checkpoint-restore=25000000000 --at-instruction --cpu-type DerivO3CPU --caches --l2cache --l1d_size=32kB --l1i_size=32kB --l2_size=256kB --l3_size=4MB --l1d_assoc=8 --l1i_assoc=8 --l2_assoc=16 --l3_assoc=16 --cpu-clock=3GHz --sys-clock=3GHz --maxinsts=250000000 --prog-interval=300Hz

info: Standard input is not a terminal, disabling listeners.
Benchmark- 0   imagick
Selected benchmark
--> imagick
CMD: ['/opt/spec2017/benchspec/CPU/538.imagick_r/run/run_base_refrate_gem5_se-m64.0000/imagick_r_base.gem5_se-m64', '-limit', 'disk', '0', '/opt/spec2017/benchspec/CPU/538.imagick_r/run/run_base_refrate_gem5_se-m64.0000/refrate_input.tga', '-edge', '41', '-resample', '181%', '-emboss', '31', '-colorspace', 'YUV', '-mean-shift', '19x19+15%', '-resize', '30%', '/opt/spec2017/benchspec/CPU/538.imagick_r/run/run_base_refrate_gem5_se-m64.0000/refrate_output.tga']
CWD: /opt/spec2017/benchspec/CPU/538.imagick_r/run/run_base_refrate_gem5_se-m64.0000/
Process stdout file: /home/user/PrIDE/performance/gem5/stats/pride_multiprogram_16GBmem_250Mn.SPEC2017.C4/RFM5.BR1.4C/imagick/imagick.out_0
Process stderr file: /home/user/PrIDE/performance/gem5/stats/pride_multiprogram_16GBmem_250Mn.SPEC2017.C4/RFM5.BR1.4C/imagick/imagick.err_0
Benchmark- 1   imagick
Selected benchmark
--> imagick
CMD: ['/opt/spec2017/benchspec/CPU/538.imagick_r/run/run_base_refrate_gem5_se-m64.0000/imagick_r_base.gem5_se-m64', '-limit', 'disk', '0', '/opt/spec2017/benchspec/CPU/538.imagick_r/run/run_base_refrate_gem5_se-m64.0000/refrate_input.tga', '-edge', '41', '-resample', '181%', '-emboss', '31', '-colorspace', 'YUV', '-mean-shift', '19x19+15%', '-resize', '30%', '/opt/spec2017/benchspec/CPU/538.imagick_r/run/run_base_refrate_gem5_se-m64.0000/refrate_output.tga']
CWD: /opt/spec2017/benchspec/CPU/538.imagick_r/run/run_base_refrate_gem5_se-m64.0000/
Process stdout file: /home/user/PrIDE/performance/gem5/stats/pride_multiprogram_16GBmem_250Mn.SPEC2017.C4/RFM5.BR1.4C/imagick/imagick.out_1
Process stderr file: /home/user/PrIDE/performance/gem5/stats/pride_multiprogram_16GBmem_250Mn.SPEC2017.C4/RFM5.BR1.4C/imagick/imagick.err_1
Benchmark- 2   imagick
Selected benchmark
--> imagick
CMD: ['/opt/spec2017/benchspec/CPU/538.imagick_r/run/run_base_refrate_gem5_se-m64.0000/imagick_r_base.gem5_se-m64', '-limit', 'disk', '0', '/opt/spec2017/benchspec/CPU/538.imagick_r/run/run_base_refrate_gem5_se-m64.0000/refrate_input.tga', '-edge', '41', '-resample', '181%', '-emboss', '31', '-colorspace', 'YUV', '-mean-shift', '19x19+15%', '-resize', '30%', '/opt/spec2017/benchspec/CPU/538.imagick_r/run/run_base_refrate_gem5_se-m64.0000/refrate_output.tga']
CWD: /opt/spec2017/benchspec/CPU/538.imagick_r/run/run_base_refrate_gem5_se-m64.0000/
Process stdout file: /home/user/PrIDE/performance/gem5/stats/pride_multiprogram_16GBmem_250Mn.SPEC2017.C4/RFM5.BR1.4C/imagick/imagick.out_2
Process stderr file: /home/user/PrIDE/performance/gem5/stats/pride_multiprogram_16GBmem_250Mn.SPEC2017.C4/RFM5.BR1.4C/imagick/imagick.err_2
Benchmark- 3   imagick
Selected benchmark
--> imagick
CMD: ['/opt/spec2017/benchspec/CPU/538.imagick_r/run/run_base_refrate_gem5_se-m64.0000/imagick_r_base.gem5_se-m64', '-limit', 'disk', '0', '/opt/spec2017/benchspec/CPU/538.imagick_r/run/run_base_refrate_gem5_se-m64.0000/refrate_input.tga', '-edge', '41', '-resample', '181%', '-emboss', '31', '-colorspace', 'YUV', '-mean-shift', '19x19+15%', '-resize', '30%', '/opt/spec2017/benchspec/CPU/538.imagick_r/run/run_base_refrate_gem5_se-m64.0000/refrate_output.tga']
CWD: /opt/spec2017/benchspec/CPU/538.imagick_r/run/run_base_refrate_gem5_se-m64.0000/
Process stdout file: /home/user/PrIDE/performance/gem5/stats/pride_multiprogram_16GBmem_250Mn.SPEC2017.C4/RFM5.BR1.4C/imagick/imagick.out_3
Process stderr file: /home/user/PrIDE/performance/gem5/stats/pride_multiprogram_16GBmem_250Mn.SPEC2017.C4/RFM5.BR1.4C/imagick/imagick.err_3
Workload-0: 
['/opt/spec2017/benchspec/CPU/538.imagick_r/run/run_base_refrate_gem5_se-m64.0000/imagick_r_base.gem5_se-m64', '-limit', 'disk', '0', '/opt/spec2017/benchspec/CPU/538.imagick_r/run/run_base_refrate_gem5_se-m64.0000/refrate_input.tga', '-edge', '41', '-resample', '181%', '-emboss', '31', '-colorspace', 'YUV', '-mean-shift', '19x19+15%', '-resize', '30%', '/opt/spec2017/benchspec/CPU/538.imagick_r/run/run_base_refrate_gem5_se-m64.0000/refrate_output.tga']
Workload-1: 
['/opt/spec2017/benchspec/CPU/538.imagick_r/run/run_base_refrate_gem5_se-m64.0000/imagick_r_base.gem5_se-m64', '-limit', 'disk', '0', '/opt/spec2017/benchspec/CPU/538.imagick_r/run/run_base_refrate_gem5_se-m64.0000/refrate_input.tga', '-edge', '41', '-resample', '181%', '-emboss', '31', '-colorspace', 'YUV', '-mean-shift', '19x19+15%', '-resize', '30%', '/opt/spec2017/benchspec/CPU/538.imagick_r/run/run_base_refrate_gem5_se-m64.0000/refrate_output.tga']
Workload-2: 
['/opt/spec2017/benchspec/CPU/538.imagick_r/run/run_base_refrate_gem5_se-m64.0000/imagick_r_base.gem5_se-m64', '-limit', 'disk', '0', '/opt/spec2017/benchspec/CPU/538.imagick_r/run/run_base_refrate_gem5_se-m64.0000/refrate_input.tga', '-edge', '41', '-resample', '181%', '-emboss', '31', '-colorspace', 'YUV', '-mean-shift', '19x19+15%', '-resize', '30%', '/opt/spec2017/benchspec/CPU/538.imagick_r/run/run_base_refrate_gem5_se-m64.0000/refrate_output.tga']
Workload-3: 
['/opt/spec2017/benchspec/CPU/538.imagick_r/run/run_base_refrate_gem5_se-m64.0000/imagick_r_base.gem5_se-m64', '-limit', 'disk', '0', '/opt/spec2017/benchspec/CPU/538.imagick_r/run/run_base_refrate_gem5_se-m64.0000/refrate_input.tga', '-edge', '41', '-resample', '181%', '-emboss', '31', '-colorspace', 'YUV', '-mean-shift', '19x19+15%', '-resize', '30%', '/opt/spec2017/benchspec/CPU/538.imagick_r/run/run_base_refrate_gem5_se-m64.0000/refrate_output.tga']
defense_enable:  True  detector:  MG  mitigation:  RFM  threshold:  800
mg_entries:  1700
rfm_maxacts_per_trefi:  79 rfm_per_trefi:  5 rfm_blast_radius:  1
Switch at curTick count:10000
warn: membus.master is deprecated. `master` is now called `mem_side_ports`
warn: No dot file generated. Please install pydot to generate the dot file and pdf.
info: Entering event queue @ 17327668666986.  Starting simulation...
info: Entering event queue @ 17327668676986.  Starting simulation...
warn: PowerState: Already in the requested power state, request ignored
Switched CPUS @ tick 17327668676986
switching cpus
**** REAL SIMULATION ****
info: Entering event queue @ 17327668677309.  Starting simulation...
17331002000319: Event_285: system.switch_cpus3 progress event, total committed:44147539, progress insts committed: 44147539, IPC: 04.41034
17331002000319: Event_284: system.switch_cpus2 progress event, total committed:44141941, progress insts committed: 44141941, IPC: 04.40978
17331002000319: Event_283: system.switch_cpus1 progress event, total committed:43713916, progress insts committed: 43713916, IPC: 04.36702
17331002000319: Event_282: system.switch_cpus0 progress event, total committed:43803362, progress insts committed: 43803362, IPC: 04.37596
17334335333652: Event_282: system.switch_cpus0 progress event, total committed:92989142, progress insts committed: 49185780, IPC: 04.91366
17334335333652: Event_283: system.switch_cpus1 progress event, total committed:92619877, progress insts committed: 48905961, IPC: 04.88571
17334335333652: Event_284: system.switch_cpus2 progress event, total committed:93471411, progress insts committed: 49329470, IPC: 04.92801
17334335333652: Event_285: system.switch_cpus3 progress event, total committed:93471550, progress insts committed: 49324011, IPC: 04.92747
17337668666985: Event_285: system.switch_cpus3 progress event, total committed:142077478, progress insts committed: 48605928, IPC: 04.85573
17337668666985: Event_284: system.switch_cpus2 progress event, total committed:142077406, progress insts committed: 48605995, IPC: 04.85574
17337668666985: Event_283: system.switch_cpus1 progress event, total committed:140589578, progress insts committed: 47969701, IPC: 04.79217
17337668666985: Event_282: system.switch_cpus0 progress event, total committed:141504626, progress insts committed: 48515484, IPC: 004.8467
17341002000318: Event_282: system.switch_cpus0 progress event, total committed:187957190, progress insts committed: 46452564, IPC: 04.64061
17341002000318: Event_283: system.switch_cpus1 progress event, total committed:187231031, progress insts committed: 46641453, IPC: 04.65948
17341002000318: Event_284: system.switch_cpus2 progress event, total committed:188914528, progress insts committed: 46837122, IPC: 04.67903
17341002000318: Event_285: system.switch_cpus3 progress event, total committed:188914456, progress insts committed: 46836978, IPC: 04.67901
17344335333651: Event_285: system.switch_cpus3 progress event, total committed:234303195, progress insts committed: 45388739, IPC: 04.53434
17344335333651: Event_284: system.switch_cpus2 progress event, total committed:234303195, progress insts committed: 45388667, IPC: 04.53433
17344335333651: Event_283: system.switch_cpus1 progress event, total committed:232609825, progress insts committed: 45378794, IPC: 04.53334
17344335333651: Event_282: system.switch_cpus0 progress event, total committed:233176382, progress insts committed: 45219192, IPC: 004.5174
warn: MOVNTDQ: Ignoring non-temporal hint, modeling as cacheable!
17347668666984: Event_282: system.switch_cpus0 progress event, total committed:248780162, progress insts committed: 15603780, IPC: 01.55882
17347668666984: Event_283: system.switch_cpus1 progress event, total committed:248115083, progress insts committed: 15505258, IPC: 01.54898
17347668666984: Event_284: system.switch_cpus2 progress event, total committed:250467934, progress insts committed: 16164739, IPC: 01.61486
17347668666984: Event_285: system.switch_cpus3 progress event, total committed:250381680, progress insts committed: 16078485, IPC: 01.60624
17351002000317: Event_285: system.switch_cpus3 progress event, total committed:292214486, progress insts committed: 41832806, IPC: 004.1791
17351002000317: Event_284: system.switch_cpus2 progress event, total committed:292273699, progress insts committed: 41805765, IPC: 004.1764
17351002000317: Event_283: system.switch_cpus1 progress event, total committed:289756948, progress insts committed: 41641865, IPC: 04.16002
17351002000317: Event_282: system.switch_cpus0 progress event, total committed:290409210, progress insts committed: 41629048, IPC: 04.15874
17354335333650: Event_282: system.switch_cpus0 progress event, total committed:332620196, progress insts committed: 42210986, IPC: 04.21688
17354335333650: Event_283: system.switch_cpus1 progress event, total committed:331847629, progress insts committed: 42090681, IPC: 04.20486
17354335333650: Event_284: system.switch_cpus2 progress event, total committed:334610822, progress insts committed: 42337123, IPC: 04.22948
17354335333650: Event_285: system.switch_cpus3 progress event, total committed:334559798, progress insts committed: 42345312, IPC: 004.2303
17357668666983: Event_285: system.switch_cpus3 progress event, total committed:377255129, progress insts committed: 42695331, IPC: 04.26526
17357668666983: Event_284: system.switch_cpus2 progress event, total committed:377269297, progress insts committed: 42658475, IPC: 04.26158
17357668666983: Event_283: system.switch_cpus1 progress event, total committed:374329266, progress insts committed: 42481637, IPC: 04.24392
17357668666983: Event_282: system.switch_cpus0 progress event, total committed:375309244, progress insts committed: 42689048, IPC: 04.26464
17361002000316: Event_282: system.switch_cpus0 progress event, total committed:416616454, progress insts committed: 41307210, IPC: 04.12659
17361002000316: Event_283: system.switch_cpus1 progress event, total committed:415652000, progress insts committed: 41322734, IPC: 04.12814
17361002000316: Event_284: system.switch_cpus2 progress event, total committed:418872390, progress insts committed: 41603093, IPC: 04.15615
17361002000316: Event_285: system.switch_cpus3 progress event, total committed:418871685, progress insts committed: 41616556, IPC: 04.15749
Exiting @ tick 17361328008951 because a thread reached the max instruction count
