Command line:
./runscript_pride.sh xz AE.BASELINE.1C 1 2017
Global frequency set at 1000000000000 ticks per second
DRAM config: RowsPerBank: 65536, BanksPerRank: 32, RanksPerChannel: 1
warn: Sockets disabled, not accepting gdb connections
warn: CoherentXBar system.cpu.mmucache.mmubus has no snooping ports attached!
warn: Checkpoints for file descriptors currently do not work.
gem5 Simulator System.  http://gem5.org
gem5 is copyrighted software; use the --copyright option for details.

gem5 version 20.1.0.5
gem5 compiled Jul 12 2024 12:42:38
gem5 started Jul 31 2024 03:21:18
gem5 executing on a07dda8b130c, pid 225621
command line: /home/user/PrIDE/performance/gem5/build/X86/gem5.opt --outdir=/home/user/PrIDE/performance/gem5/stats/pride_multiprogram_16GBmem_250Mn.SPEC2017.C1/AE.BASELINE.1C/xz /home/user/PrIDE/performance/gem5/configs/example/se_rq_spec_config_multicore.py --redirects /lib64=/home/utils/gcc-6.2.0/lib64 --benchmark=xz --benchmark_stdout=/home/user/PrIDE/performance/gem5/stats/pride_multiprogram_16GBmem_250Mn.SPEC2017.C1/AE.BASELINE.1C/xz/xz.out --benchmark_stderr=/home/user/PrIDE/performance/gem5/stats/pride_multiprogram_16GBmem_250Mn.SPEC2017.C1/AE.BASELINE.1C/xz/xz.err --spec-version=2017 --num-cpus=1 --mem-size=16GB --mem-type=DDR5_2400_32x4 --mem-ranks=1 --mem-channels=1 --checkpoint-dir=/home/user/PrIDE/performance/gem5/cpts-DDR5/multiprogram_16GBmem_25Bn.SPEC2017.C1/xz-1-ref-x86 --checkpoint-restore=25000000000 --at-instruction --cpu-type DerivO3CPU --caches --l2cache --l1d_size=32kB --l1i_size=32kB --l2_size=256kB --l3_size=4MB --l1d_assoc=8 --l1i_assoc=8 --l2_assoc=16 --l3_assoc=16 --cpu-clock=3GHz --sys-clock=3GHz --maxinsts=250000000 --prog-interval=300Hz

info: Standard input is not a terminal, disabling listeners.
Benchmark- 0   xz
Selected benchmark
--> xz
CMD: ['/opt/spec2017/benchspec/CPU/557.xz_r/run/run_base_refrate_gem5_se-m64.0000/xz_r_base.gem5_se-m64', '/opt/spec2017/benchspec/CPU/557.xz_r/run/run_base_refrate_gem5_se-m64.0000/cld.tar.xz', '160', '19cf30ae51eddcbefda78dd06014b4b96281456e078ca7c13e1c0c9e6aaea8dff3efb4ad6b0456697718cede6bd5454852652806a657bb56e07d61128434b474', '59796407', '61004416', '6']
CWD: /opt/spec2017/benchspec/CPU/557.xz_r/run/run_base_refrate_gem5_se-m64.0000/
Process stdout file: /home/user/PrIDE/performance/gem5/stats/pride_multiprogram_16GBmem_250Mn.SPEC2017.C1/AE.BASELINE.1C/xz/xz.out_0
Process stderr file: /home/user/PrIDE/performance/gem5/stats/pride_multiprogram_16GBmem_250Mn.SPEC2017.C1/AE.BASELINE.1C/xz/xz.err_0
Workload-0: 
['/opt/spec2017/benchspec/CPU/557.xz_r/run/run_base_refrate_gem5_se-m64.0000/xz_r_base.gem5_se-m64', '/opt/spec2017/benchspec/CPU/557.xz_r/run/run_base_refrate_gem5_se-m64.0000/cld.tar.xz', '160', '19cf30ae51eddcbefda78dd06014b4b96281456e078ca7c13e1c0c9e6aaea8dff3efb4ad6b0456697718cede6bd5454852652806a657bb56e07d61128434b474', '59796407', '61004416', '6']
defense_enable:  False  detector:  MG  mitigation:  RRS  threshold:  800
mg_entries:  1700
rrs_tuples:  3400 rrs_swap_delay:  2740ns rit_acc_delay:  1.25ns
Switch at curTick count:10000
warn: membus.master is deprecated. `master` is now called `mem_side_ports`
warn: No dot file generated. Please install pydot to generate the dot file and pdf.
info: Entering event queue @ 14950446118803.  Starting simulation...
warn: MOVNTDQ: Ignoring non-temporal hint, modeling as cacheable!
warn: PowerState: Already in the requested power state, request ignored
Switched CPUS @ tick 14950446128803
switching cpus
**** REAL SIMULATION ****
info: Entering event queue @ 14950446128803.  Starting simulation...
14953779452136: Event_93: system.switch_cpus progress event, total committed:16360013, progress insts committed: 16360013, IPC: 01.63437
14957112785469: Event_93: system.switch_cpus progress event, total committed:33056280, progress insts committed: 16696267, IPC: 01.66796
14960446118802: Event_93: system.switch_cpus progress event, total committed:49756215, progress insts committed: 16699935, IPC: 01.66832
14963779452135: Event_93: system.switch_cpus progress event, total committed:66563098, progress insts committed: 16806883, IPC: 01.67901
14967112785468: Event_93: system.switch_cpus progress event, total committed:83272813, progress insts committed: 16709715, IPC: 001.6693
14970446118801: Event_93: system.switch_cpus progress event, total committed:100162720, progress insts committed: 16889907, IPC: 001.6873
14973779452134: Event_93: system.switch_cpus progress event, total committed:116845409, progress insts committed: 16682689, IPC: 001.6666
14977112785467: Event_93: system.switch_cpus progress event, total committed:133448744, progress insts committed: 16603335, IPC: 01.65867
14980446118800: Event_93: system.switch_cpus progress event, total committed:150180144, progress insts committed: 16731400, IPC: 01.67147
14983779452133: Event_93: system.switch_cpus progress event, total committed:166902174, progress insts committed: 16722030, IPC: 01.67053
14987112785466: Event_93: system.switch_cpus progress event, total committed:183526822, progress insts committed: 16624648, IPC: 001.6608
14990446118799: Event_93: system.switch_cpus progress event, total committed:200257436, progress insts committed: 16730614, IPC: 01.67139
14993779452132: Event_93: system.switch_cpus progress event, total committed:216995429, progress insts committed: 16737993, IPC: 01.67213
14997112785465: Event_93: system.switch_cpus progress event, total committed:233664570, progress insts committed: 16669141, IPC: 01.66525
15000446118798: Event_93: system.switch_cpus progress event, total committed:250444140, progress insts committed: 16779570, IPC: 01.67628
15003779452131: Event_93: system.switch_cpus progress event, total committed:267072800, progress insts committed: 16628660, IPC: 001.6612
15007112785464: Event_93: system.switch_cpus progress event, total committed:283659140, progress insts committed: 16586340, IPC: 01.65698
15010446118797: Event_93: system.switch_cpus progress event, total committed:300409994, progress insts committed: 16750854, IPC: 01.67341
15013779452130: Event_93: system.switch_cpus progress event, total committed:317082206, progress insts committed: 16672212, IPC: 01.66555
15017112785463: Event_93: system.switch_cpus progress event, total committed:333779379, progress insts committed: 16697173, IPC: 01.66805
15020446118796: Event_93: system.switch_cpus progress event, total committed:350484806, progress insts committed: 16705427, IPC: 01.66887
Exiting @ tick 15022898216847 because a thread reached the max instruction count
