
---------- Begin Simulation Statistics ----------
final_tick                               15022898343720                       # Number of ticks from beginning of simulation (restored from checkpoints and never reset)
host_inst_rate                                  99379                       # Simulator instruction rate (inst/s)
host_mem_usage                               17052872                       # Number of bytes of host memory used
host_op_rate                                   144197                       # Simulator op (including micro ops) rate (op/s)
host_seconds                                  2515.62                       # Real time elapsed on the host
host_tick_rate                               28800935                       # Simulator tick rate (ticks/s)
sim_freq                                 1000000000000                       # Frequency of simulated ticks
sim_insts                                   250000012                       # Number of instructions simulated
sim_ops                                     362744522                       # Number of ops (including micro ops) simulated
sim_seconds                                  0.072452                       # Number of seconds simulated
sim_ticks                                 72452161980                       # Number of ticks simulated
system.cpu.Branches                                 1                       # Number of branches fetched
system.cpu.committedInsts                          11                       # Number of instructions committed
system.cpu.committedOps                            23                       # Number of ops (including micro ops) committed
system.cpu.idle_fraction                            0                       # Percentage of idle cycles
system.cpu.l2bus.snoop_filter.hit_multi_requests          288                       # Number of requests hitting in the snoop filter with multiple (>1) holders of the requested data.
system.cpu.l2bus.snoop_filter.hit_multi_snoops            0                       # Number of snoops hitting in the snoop filter with multiple (>1) holders of the requested data.
system.cpu.l2bus.snoop_filter.hit_single_requests       226651                       # Number of requests hitting in the snoop filter with a single holder of the requested data.
system.cpu.l2bus.snoop_filter.hit_single_snoops          380                       # Number of snoops hitting in the snoop filter with a single holder of the requested data.
system.cpu.l2bus.snoop_filter.tot_requests       453909                       # Total number of requests made to the snoop filter.
system.cpu.l2bus.snoop_filter.tot_snoops          380                       # Total number of snoops made to the snoop filter.
system.cpu.mmucache.mmubus.snoop_filter.hit_multi_requests            0                       # Number of requests hitting in the snoop filter with multiple (>1) holders of the requested data.
system.cpu.mmucache.mmubus.snoop_filter.hit_multi_snoops            0                       # Number of snoops hitting in the snoop filter with multiple (>1) holders of the requested data.
system.cpu.mmucache.mmubus.snoop_filter.hit_single_requests            0                       # Number of requests hitting in the snoop filter with a single holder of the requested data.
system.cpu.mmucache.mmubus.snoop_filter.hit_single_snoops            0                       # Number of snoops hitting in the snoop filter with a single holder of the requested data.
system.cpu.mmucache.mmubus.snoop_filter.tot_requests            0                       # Total number of requests made to the snoop filter.
system.cpu.mmucache.mmubus.snoop_filter.tot_snoops            0                       # Total number of snoops made to the snoop filter.
system.cpu.not_idle_fraction                        1                       # Percentage of non-idle cycles
system.cpu.numCycles                               31                       # number of cpu cycles simulated
system.cpu.numWorkItemsCompleted                    0                       # number of work items this cpu completed
system.cpu.numWorkItemsStarted                      0                       # number of work items this cpu started
system.cpu.num_busy_cycles                         31                       # Number of busy cycles
system.cpu.num_cc_register_reads                    5                       # number of times the CC registers were read
system.cpu.num_cc_register_writes                   4                       # number of times the CC registers were written
system.cpu.num_conditional_control_insts            1                       # number of instructions that are conditional controls
system.cpu.num_fp_alu_accesses                     12                       # Number of float alu accesses
system.cpu.num_fp_insts                            12                       # number of float instructions
system.cpu.num_fp_register_reads                    4                       # number of times the floating registers were read
system.cpu.num_fp_register_writes                   8                       # number of times the floating registers were written
system.cpu.num_func_calls                           0                       # number of times a function call or return occured
system.cpu.num_idle_cycles                          0                       # Number of idle cycles
system.cpu.num_int_alu_accesses                    23                       # Number of integer alu accesses
system.cpu.num_int_insts                           23                       # number of integer instructions
system.cpu.num_int_register_reads                  58                       # number of times the integer registers were read
system.cpu.num_int_register_writes                  8                       # number of times the integer registers were written
system.cpu.num_load_insts                          10                       # Number of load instructions
system.cpu.num_mem_refs                            16                       # number of memory refs
system.cpu.num_store_insts                          6                       # Number of store instructions
system.cpu.num_vec_alu_accesses                     0                       # Number of vector alu accesses
system.cpu.num_vec_insts                            0                       # number of vector instructions
system.cpu.num_vec_register_reads                   0                       # number of times the vector registers were read
system.cpu.num_vec_register_writes                  0                       # number of times the vector registers were written
system.cpu.op_class::No_OpClass                     2      8.00%      8.00% # Class of executed instruction
system.cpu.op_class::IntAlu                         7     28.00%     36.00% # Class of executed instruction
system.cpu.op_class::IntMult                        0      0.00%     36.00% # Class of executed instruction
system.cpu.op_class::IntDiv                         0      0.00%     36.00% # Class of executed instruction
system.cpu.op_class::FloatAdd                       0      0.00%     36.00% # Class of executed instruction
system.cpu.op_class::FloatCmp                       0      0.00%     36.00% # Class of executed instruction
system.cpu.op_class::FloatCvt                       0      0.00%     36.00% # Class of executed instruction
system.cpu.op_class::FloatMult                      0      0.00%     36.00% # Class of executed instruction
system.cpu.op_class::FloatMultAcc                   0      0.00%     36.00% # Class of executed instruction
system.cpu.op_class::FloatDiv                       0      0.00%     36.00% # Class of executed instruction
system.cpu.op_class::FloatMisc                      0      0.00%     36.00% # Class of executed instruction
system.cpu.op_class::FloatSqrt                      0      0.00%     36.00% # Class of executed instruction
system.cpu.op_class::SimdAdd                        0      0.00%     36.00% # Class of executed instruction
system.cpu.op_class::SimdAddAcc                     0      0.00%     36.00% # Class of executed instruction
system.cpu.op_class::SimdAlu                        0      0.00%     36.00% # Class of executed instruction
system.cpu.op_class::SimdCmp                        0      0.00%     36.00% # Class of executed instruction
system.cpu.op_class::SimdCvt                        0      0.00%     36.00% # Class of executed instruction
system.cpu.op_class::SimdMisc                       0      0.00%     36.00% # Class of executed instruction
system.cpu.op_class::SimdMult                       0      0.00%     36.00% # Class of executed instruction
system.cpu.op_class::SimdMultAcc                    0      0.00%     36.00% # Class of executed instruction
system.cpu.op_class::SimdShift                      0      0.00%     36.00% # Class of executed instruction
system.cpu.op_class::SimdShiftAcc                   0      0.00%     36.00% # Class of executed instruction
system.cpu.op_class::SimdDiv                        0      0.00%     36.00% # Class of executed instruction
system.cpu.op_class::SimdSqrt                       0      0.00%     36.00% # Class of executed instruction
system.cpu.op_class::SimdFloatAdd                   0      0.00%     36.00% # Class of executed instruction
system.cpu.op_class::SimdFloatAlu                   0      0.00%     36.00% # Class of executed instruction
system.cpu.op_class::SimdFloatCmp                   0      0.00%     36.00% # Class of executed instruction
system.cpu.op_class::SimdFloatCvt                   0      0.00%     36.00% # Class of executed instruction
system.cpu.op_class::SimdFloatDiv                   0      0.00%     36.00% # Class of executed instruction
system.cpu.op_class::SimdFloatMisc                  0      0.00%     36.00% # Class of executed instruction
system.cpu.op_class::SimdFloatMult                  0      0.00%     36.00% # Class of executed instruction
system.cpu.op_class::SimdFloatMultAcc               0      0.00%     36.00% # Class of executed instruction
system.cpu.op_class::SimdFloatSqrt                  0      0.00%     36.00% # Class of executed instruction
system.cpu.op_class::SimdReduceAdd                  0      0.00%     36.00% # Class of executed instruction
system.cpu.op_class::SimdReduceAlu                  0      0.00%     36.00% # Class of executed instruction
system.cpu.op_class::SimdReduceCmp                  0      0.00%     36.00% # Class of executed instruction
system.cpu.op_class::SimdFloatReduceAdd             0      0.00%     36.00% # Class of executed instruction
system.cpu.op_class::SimdFloatReduceCmp             0      0.00%     36.00% # Class of executed instruction
system.cpu.op_class::SimdAes                        0      0.00%     36.00% # Class of executed instruction
system.cpu.op_class::SimdAesMix                     0      0.00%     36.00% # Class of executed instruction
system.cpu.op_class::SimdSha1Hash                   0      0.00%     36.00% # Class of executed instruction
system.cpu.op_class::SimdSha1Hash2                  0      0.00%     36.00% # Class of executed instruction
system.cpu.op_class::SimdSha256Hash                 0      0.00%     36.00% # Class of executed instruction
system.cpu.op_class::SimdSha256Hash2                0      0.00%     36.00% # Class of executed instruction
system.cpu.op_class::SimdShaSigma2                  0      0.00%     36.00% # Class of executed instruction
system.cpu.op_class::SimdShaSigma3                  0      0.00%     36.00% # Class of executed instruction
system.cpu.op_class::SimdPredAlu                    0      0.00%     36.00% # Class of executed instruction
system.cpu.op_class::MemRead                        2      8.00%     44.00% # Class of executed instruction
system.cpu.op_class::MemWrite                       2      8.00%     52.00% # Class of executed instruction
system.cpu.op_class::FloatMemRead                   8     32.00%     84.00% # Class of executed instruction
system.cpu.op_class::FloatMemWrite                  4     16.00%    100.00% # Class of executed instruction
system.cpu.op_class::IprAccess                      0      0.00%    100.00% # Class of executed instruction
system.cpu.op_class::InstPrefetch                   0      0.00%    100.00% # Class of executed instruction
system.cpu.op_class::total                         25                       # Class of executed instruction
system.cpu.workload.numSyscalls                     0                       # Number of system calls
system.l3bus.snoop_filter.hit_multi_requests            0                       # Number of requests hitting in the snoop filter with multiple (>1) holders of the requested data.
system.l3bus.snoop_filter.hit_multi_snoops            0                       # Number of snoops hitting in the snoop filter with multiple (>1) holders of the requested data.
system.l3bus.snoop_filter.hit_single_requests       102201                       # Number of requests hitting in the snoop filter with a single holder of the requested data.
system.l3bus.snoop_filter.hit_single_snoops            0                       # Number of snoops hitting in the snoop filter with a single holder of the requested data.
system.l3bus.snoop_filter.tot_requests         208829                       # Total number of requests made to the snoop filter.
system.l3bus.snoop_filter.tot_snoops                0                       # Total number of snoops made to the snoop filter.
system.membus.snoop_filter.hit_multi_requests            0                       # Number of requests hitting in the snoop filter with multiple (>1) holders of the requested data.
system.membus.snoop_filter.hit_multi_snoops            0                       # Number of snoops hitting in the snoop filter with multiple (>1) holders of the requested data.
system.membus.snoop_filter.hit_single_requests        30411                       # Number of requests hitting in the snoop filter with a single holder of the requested data.
system.membus.snoop_filter.hit_single_snoops            0                       # Number of snoops hitting in the snoop filter with a single holder of the requested data.
system.membus.snoop_filter.tot_requests        130574                       # Total number of requests made to the snoop filter.
system.membus.snoop_filter.tot_snoops               0                       # Total number of snoops made to the snoop filter.
system.switch_cpus.cc_regfile_reads         213993917                       # number of cc regfile reads
system.switch_cpus.cc_regfile_writes        252657942                       # number of cc regfile writes
system.switch_cpus.committedInsts           250000001                       # Number of Instructions Simulated
system.switch_cpus.committedOps             362744499                       # Number of Ops (including micro ops) Simulated
system.switch_cpus.cpi                       0.870296                       # CPI: Cycles Per Instruction
system.switch_cpus.cpi_total                 0.870296                       # CPI: Total CPI of All Threads
system.switch_cpus.fp_regfile_reads           6383368                       # number of floating regfile reads
system.switch_cpus.fp_regfile_writes          6364355                       # number of floating regfile writes
system.switch_cpus.idleCycles                   46304                       # Total number of cycles that the CPU has spent unscheduled due to idling
system.switch_cpus.iew.branchMispredicts      3375416                       # Number of branch mispredicts detected at execute
system.switch_cpus.iew.exec_branches         39344613                       # Number of branches executed
system.switch_cpus.iew.exec_nop                     0                       # number of nop insts executed
system.switch_cpus.iew.exec_rate             2.267865                       # Inst execution rate
system.switch_cpus.iew.exec_refs             85823383                       # number of memory reference insts executed
system.switch_cpus.iew.exec_stores           26461147                       # Number of stores executed
system.switch_cpus.iew.exec_swp                     0                       # number of swp insts executed
system.switch_cpus.iew.iewBlockCycles        40487493                       # Number of cycles IEW is blocking
system.switch_cpus.iew.iewDispLoadInsts      69489862                       # Number of dispatched load instructions
system.switch_cpus.iew.iewDispNonSpecInsts            0                       # Number of dispatched non-speculative instructions
system.switch_cpus.iew.iewDispSquashedInsts         7674                       # Number of squashed instructions skipped by dispatch
system.switch_cpus.iew.iewDispStoreInsts     37374846                       # Number of dispatched store instructions
system.switch_cpus.iew.iewDispatchedInsts    622592603                       # Number of instructions dispatched to IQ
system.switch_cpus.iew.iewExecLoadInsts      59362236                       # Number of load instructions executed
system.switch_cpus.iew.iewExecSquashedInsts      6096663                       # Number of squashed instructions skipped in execute
system.switch_cpus.iew.iewExecutedInsts     493428631                       # Number of executed instructions
system.switch_cpus.iew.iewIQFullEvents         132747                       # Number of times the IQ has become full, causing a stall
system.switch_cpus.iew.iewIdleCycles                0                       # Number of cycles IEW is idle
system.switch_cpus.iew.iewLSQFullEvents        647509                       # Number of times the LSQ has become full, causing a stall
system.switch_cpus.iew.iewSquashCycles        3297115                       # Number of cycles IEW is squashing
system.switch_cpus.iew.iewUnblockCycles        761674                       # Number of cycles IEW is unblocking
system.switch_cpus.iew.memOrderViolationEvents        19667                       # Number of memory order violations
system.switch_cpus.iew.predictedNotTakenIncorrect      1331971                       # Number of branches that were predicted not taken incorrectly
system.switch_cpus.iew.predictedTakenIncorrect      2043445                       # Number of branches that were predicted taken incorrectly
system.switch_cpus.iew.wb_consumers         720086193                       # num instructions consuming a value
system.switch_cpus.iew.wb_count             488676974                       # cumulative count of insts written-back
system.switch_cpus.iew.wb_fanout             0.543087                       # average fanout of values written-back
system.switch_cpus.iew.wb_producers         391069777                       # num instructions producing a value
system.switch_cpus.iew.wb_rate               2.246026                       # insts written-back per cycle
system.switch_cpus.iew.wb_sent              492910835                       # cumulative count of insts sent to commit
system.switch_cpus.int_regfile_reads        794325762                       # number of integer regfile reads
system.switch_cpus.int_regfile_writes       426899833                       # number of integer regfile writes
system.switch_cpus.ipc                       1.149034                       # IPC: Instructions Per Cycle
system.switch_cpus.ipc_total                 1.149034                       # IPC: Total IPC of All Threads
system.switch_cpus.iq.FU_type_0::No_OpClass      3143113      0.63%      0.63% # Type of FU issued
system.switch_cpus.iq.FU_type_0::IntAlu     398571944     79.79%     80.42% # Type of FU issued
system.switch_cpus.iq.FU_type_0::IntMult      9295999      1.86%     82.28% # Type of FU issued
system.switch_cpus.iq.FU_type_0::IntDiv             0      0.00%     82.28% # Type of FU issued
system.switch_cpus.iq.FU_type_0::FloatAdd            0      0.00%     82.28% # Type of FU issued
system.switch_cpus.iq.FU_type_0::FloatCmp            0      0.00%     82.28% # Type of FU issued
system.switch_cpus.iq.FU_type_0::FloatCvt            0      0.00%     82.28% # Type of FU issued
system.switch_cpus.iq.FU_type_0::FloatMult            0      0.00%     82.28% # Type of FU issued
system.switch_cpus.iq.FU_type_0::FloatMultAcc            0      0.00%     82.28% # Type of FU issued
system.switch_cpus.iq.FU_type_0::FloatDiv            0      0.00%     82.28% # Type of FU issued
system.switch_cpus.iq.FU_type_0::FloatMisc            0      0.00%     82.28% # Type of FU issued
system.switch_cpus.iq.FU_type_0::FloatSqrt            0      0.00%     82.28% # Type of FU issued
system.switch_cpus.iq.FU_type_0::SimdAdd            0      0.00%     82.28% # Type of FU issued
system.switch_cpus.iq.FU_type_0::SimdAddAcc            0      0.00%     82.28% # Type of FU issued
system.switch_cpus.iq.FU_type_0::SimdAlu            0      0.00%     82.28% # Type of FU issued
system.switch_cpus.iq.FU_type_0::SimdCmp            0      0.00%     82.28% # Type of FU issued
system.switch_cpus.iq.FU_type_0::SimdCvt            0      0.00%     82.28% # Type of FU issued
system.switch_cpus.iq.FU_type_0::SimdMisc            0      0.00%     82.28% # Type of FU issued
system.switch_cpus.iq.FU_type_0::SimdMult            0      0.00%     82.28% # Type of FU issued
system.switch_cpus.iq.FU_type_0::SimdMultAcc            0      0.00%     82.28% # Type of FU issued
system.switch_cpus.iq.FU_type_0::SimdShift            0      0.00%     82.28% # Type of FU issued
system.switch_cpus.iq.FU_type_0::SimdShiftAcc            0      0.00%     82.28% # Type of FU issued
system.switch_cpus.iq.FU_type_0::SimdDiv            0      0.00%     82.28% # Type of FU issued
system.switch_cpus.iq.FU_type_0::SimdSqrt            0      0.00%     82.28% # Type of FU issued
system.switch_cpus.iq.FU_type_0::SimdFloatAdd            0      0.00%     82.28% # Type of FU issued
system.switch_cpus.iq.FU_type_0::SimdFloatAlu            0      0.00%     82.28% # Type of FU issued
system.switch_cpus.iq.FU_type_0::SimdFloatCmp            0      0.00%     82.28% # Type of FU issued
system.switch_cpus.iq.FU_type_0::SimdFloatCvt            0      0.00%     82.28% # Type of FU issued
system.switch_cpus.iq.FU_type_0::SimdFloatDiv            0      0.00%     82.28% # Type of FU issued
system.switch_cpus.iq.FU_type_0::SimdFloatMisc            0      0.00%     82.28% # Type of FU issued
system.switch_cpus.iq.FU_type_0::SimdFloatMult            0      0.00%     82.28% # Type of FU issued
system.switch_cpus.iq.FU_type_0::SimdFloatMultAcc            0      0.00%     82.28% # Type of FU issued
system.switch_cpus.iq.FU_type_0::SimdFloatSqrt            0      0.00%     82.28% # Type of FU issued
system.switch_cpus.iq.FU_type_0::SimdReduceAdd            0      0.00%     82.28% # Type of FU issued
system.switch_cpus.iq.FU_type_0::SimdReduceAlu            0      0.00%     82.28% # Type of FU issued
system.switch_cpus.iq.FU_type_0::SimdReduceCmp            0      0.00%     82.28% # Type of FU issued
system.switch_cpus.iq.FU_type_0::SimdFloatReduceAdd            0      0.00%     82.28% # Type of FU issued
system.switch_cpus.iq.FU_type_0::SimdFloatReduceCmp            0      0.00%     82.28% # Type of FU issued
system.switch_cpus.iq.FU_type_0::SimdAes            0      0.00%     82.28% # Type of FU issued
system.switch_cpus.iq.FU_type_0::SimdAesMix            0      0.00%     82.28% # Type of FU issued
system.switch_cpus.iq.FU_type_0::SimdSha1Hash            0      0.00%     82.28% # Type of FU issued
system.switch_cpus.iq.FU_type_0::SimdSha1Hash2            0      0.00%     82.28% # Type of FU issued
system.switch_cpus.iq.FU_type_0::SimdSha256Hash            0      0.00%     82.28% # Type of FU issued
system.switch_cpus.iq.FU_type_0::SimdSha256Hash2            0      0.00%     82.28% # Type of FU issued
system.switch_cpus.iq.FU_type_0::SimdShaSigma2            0      0.00%     82.28% # Type of FU issued
system.switch_cpus.iq.FU_type_0::SimdShaSigma3            0      0.00%     82.28% # Type of FU issued
system.switch_cpus.iq.FU_type_0::SimdPredAlu            0      0.00%     82.28% # Type of FU issued
system.switch_cpus.iq.FU_type_0::MemRead     54127146     10.84%     93.12% # Type of FU issued
system.switch_cpus.iq.FU_type_0::MemWrite     21571131      4.32%     97.43% # Type of FU issued
system.switch_cpus.iq.FU_type_0::FloatMemRead      6418669      1.28%     98.72% # Type of FU issued
system.switch_cpus.iq.FU_type_0::FloatMemWrite      6397294      1.28%    100.00% # Type of FU issued
system.switch_cpus.iq.FU_type_0::IprAccess            0      0.00%    100.00% # Type of FU issued
system.switch_cpus.iq.FU_type_0::InstPrefetch            0      0.00%    100.00% # Type of FU issued
system.switch_cpus.iq.FU_type_0::total      499525296                       # Type of FU issued
system.switch_cpus.iq.fp_alu_accesses        15584434                       # Number of floating point alu accesses
system.switch_cpus.iq.fp_inst_queue_reads     28404706                       # Number of floating instruction queue reads
system.switch_cpus.iq.fp_inst_queue_wakeup_accesses     12727906                       # Number of floating instruction queue wakeup accesses
system.switch_cpus.iq.fp_inst_queue_writes     24758926                       # Number of floating instruction queue writes
system.switch_cpus.iq.fu_busy_cnt             7849824                       # FU busy when requested
system.switch_cpus.iq.fu_busy_rate           0.015715                       # FU busy rate (busy events/executed inst)
system.switch_cpus.iq.fu_full::No_OpClass            0      0.00%      0.00% # attempts to use FU when none available
system.switch_cpus.iq.fu_full::IntAlu         3189941     40.64%     40.64% # attempts to use FU when none available
system.switch_cpus.iq.fu_full::IntMult              0      0.00%     40.64% # attempts to use FU when none available
system.switch_cpus.iq.fu_full::IntDiv               0      0.00%     40.64% # attempts to use FU when none available
system.switch_cpus.iq.fu_full::FloatAdd             0      0.00%     40.64% # attempts to use FU when none available
system.switch_cpus.iq.fu_full::FloatCmp             0      0.00%     40.64% # attempts to use FU when none available
system.switch_cpus.iq.fu_full::FloatCvt             0      0.00%     40.64% # attempts to use FU when none available
system.switch_cpus.iq.fu_full::FloatMult            0      0.00%     40.64% # attempts to use FU when none available
system.switch_cpus.iq.fu_full::FloatMultAcc            0      0.00%     40.64% # attempts to use FU when none available
system.switch_cpus.iq.fu_full::FloatDiv             0      0.00%     40.64% # attempts to use FU when none available
system.switch_cpus.iq.fu_full::FloatMisc            0      0.00%     40.64% # attempts to use FU when none available
system.switch_cpus.iq.fu_full::FloatSqrt            0      0.00%     40.64% # attempts to use FU when none available
system.switch_cpus.iq.fu_full::SimdAdd              0      0.00%     40.64% # attempts to use FU when none available
system.switch_cpus.iq.fu_full::SimdAddAcc            0      0.00%     40.64% # attempts to use FU when none available
system.switch_cpus.iq.fu_full::SimdAlu              0      0.00%     40.64% # attempts to use FU when none available
system.switch_cpus.iq.fu_full::SimdCmp              0      0.00%     40.64% # attempts to use FU when none available
system.switch_cpus.iq.fu_full::SimdCvt              0      0.00%     40.64% # attempts to use FU when none available
system.switch_cpus.iq.fu_full::SimdMisc             0      0.00%     40.64% # attempts to use FU when none available
system.switch_cpus.iq.fu_full::SimdMult             0      0.00%     40.64% # attempts to use FU when none available
system.switch_cpus.iq.fu_full::SimdMultAcc            0      0.00%     40.64% # attempts to use FU when none available
system.switch_cpus.iq.fu_full::SimdShift            0      0.00%     40.64% # attempts to use FU when none available
system.switch_cpus.iq.fu_full::SimdShiftAcc            0      0.00%     40.64% # attempts to use FU when none available
system.switch_cpus.iq.fu_full::SimdDiv              0      0.00%     40.64% # attempts to use FU when none available
system.switch_cpus.iq.fu_full::SimdSqrt             0      0.00%     40.64% # attempts to use FU when none available
system.switch_cpus.iq.fu_full::SimdFloatAdd            0      0.00%     40.64% # attempts to use FU when none available
system.switch_cpus.iq.fu_full::SimdFloatAlu            0      0.00%     40.64% # attempts to use FU when none available
system.switch_cpus.iq.fu_full::SimdFloatCmp            0      0.00%     40.64% # attempts to use FU when none available
system.switch_cpus.iq.fu_full::SimdFloatCvt            0      0.00%     40.64% # attempts to use FU when none available
system.switch_cpus.iq.fu_full::SimdFloatDiv            0      0.00%     40.64% # attempts to use FU when none available
system.switch_cpus.iq.fu_full::SimdFloatMisc            0      0.00%     40.64% # attempts to use FU when none available
system.switch_cpus.iq.fu_full::SimdFloatMult            0      0.00%     40.64% # attempts to use FU when none available
system.switch_cpus.iq.fu_full::SimdFloatMultAcc            0      0.00%     40.64% # attempts to use FU when none available
system.switch_cpus.iq.fu_full::SimdFloatSqrt            0      0.00%     40.64% # attempts to use FU when none available
system.switch_cpus.iq.fu_full::SimdReduceAdd            0      0.00%     40.64% # attempts to use FU when none available
system.switch_cpus.iq.fu_full::SimdReduceAlu            0      0.00%     40.64% # attempts to use FU when none available
system.switch_cpus.iq.fu_full::SimdReduceCmp            0      0.00%     40.64% # attempts to use FU when none available
system.switch_cpus.iq.fu_full::SimdFloatReduceAdd            0      0.00%     40.64% # attempts to use FU when none available
system.switch_cpus.iq.fu_full::SimdFloatReduceCmp            0      0.00%     40.64% # attempts to use FU when none available
system.switch_cpus.iq.fu_full::SimdAes              0      0.00%     40.64% # attempts to use FU when none available
system.switch_cpus.iq.fu_full::SimdAesMix            0      0.00%     40.64% # attempts to use FU when none available
system.switch_cpus.iq.fu_full::SimdSha1Hash            0      0.00%     40.64% # attempts to use FU when none available
system.switch_cpus.iq.fu_full::SimdSha1Hash2            0      0.00%     40.64% # attempts to use FU when none available
system.switch_cpus.iq.fu_full::SimdSha256Hash            0      0.00%     40.64% # attempts to use FU when none available
system.switch_cpus.iq.fu_full::SimdSha256Hash2            0      0.00%     40.64% # attempts to use FU when none available
system.switch_cpus.iq.fu_full::SimdShaSigma2            0      0.00%     40.64% # attempts to use FU when none available
system.switch_cpus.iq.fu_full::SimdShaSigma3            0      0.00%     40.64% # attempts to use FU when none available
system.switch_cpus.iq.fu_full::SimdPredAlu            0      0.00%     40.64% # attempts to use FU when none available
system.switch_cpus.iq.fu_full::MemRead         338230      4.31%     44.95% # attempts to use FU when none available
system.switch_cpus.iq.fu_full::MemWrite       1553182     19.79%     64.73% # attempts to use FU when none available
system.switch_cpus.iq.fu_full::FloatMemRead      1935065     24.65%     89.38% # attempts to use FU when none available
system.switch_cpus.iq.fu_full::FloatMemWrite       833406     10.62%    100.00% # attempts to use FU when none available
system.switch_cpus.iq.fu_full::IprAccess            0      0.00%    100.00% # attempts to use FU when none available
system.switch_cpus.iq.fu_full::InstPrefetch            0      0.00%    100.00% # attempts to use FU when none available
system.switch_cpus.iq.int_alu_accesses      488647573                       # Number of integer alu accesses
system.switch_cpus.iq.int_inst_queue_reads   1196239479                       # Number of integer instruction queue reads
system.switch_cpus.iq.int_inst_queue_wakeup_accesses    475949068                       # Number of integer instruction queue wakeup accesses
system.switch_cpus.iq.int_inst_queue_writes    857701090                       # Number of integer instruction queue writes
system.switch_cpus.iq.iqInstsAdded          622579477                       # Number of instructions added to the IQ (excludes non-spec)
system.switch_cpus.iq.iqInstsIssued         499525296                       # Number of instructions issued
system.switch_cpus.iq.iqNonSpecInstsAdded        13126                       # Number of non-speculative instructions added to the IQ
system.switch_cpus.iq.iqSquashedInstsExamined    259848053                       # Number of squashed instructions iterated over during squash; mainly for profiling
system.switch_cpus.iq.iqSquashedInstsIssued       216046                       # Number of squashed instructions issued
system.switch_cpus.iq.iqSquashedNonSpecRemoved        12528                       # Number of squashed non-spec instructions that were removed
system.switch_cpus.iq.iqSquashedOperandsExamined    409552313                       # Number of squashed operands that are examined and possibly removed from graph
system.switch_cpus.iq.issued_per_cycle::samples    217527725                       # Number of insts issued each cycle
system.switch_cpus.iq.issued_per_cycle::mean     2.296375                       # Number of insts issued each cycle
system.switch_cpus.iq.issued_per_cycle::stdev     2.224239                       # Number of insts issued each cycle
system.switch_cpus.iq.issued_per_cycle::underflows            0      0.00%      0.00% # Number of insts issued each cycle
system.switch_cpus.iq.issued_per_cycle::0     75792378     34.84%     34.84% # Number of insts issued each cycle
system.switch_cpus.iq.issued_per_cycle::1     21304106      9.79%     44.64% # Number of insts issued each cycle
system.switch_cpus.iq.issued_per_cycle::2     24451478     11.24%     55.88% # Number of insts issued each cycle
system.switch_cpus.iq.issued_per_cycle::3     29257081     13.45%     69.33% # Number of insts issued each cycle
system.switch_cpus.iq.issued_per_cycle::4     27130500     12.47%     81.80% # Number of insts issued each cycle
system.switch_cpus.iq.issued_per_cycle::5     17344993      7.97%     89.77% # Number of insts issued each cycle
system.switch_cpus.iq.issued_per_cycle::6     12232236      5.62%     95.40% # Number of insts issued each cycle
system.switch_cpus.iq.issued_per_cycle::7      7213014      3.32%     98.71% # Number of insts issued each cycle
system.switch_cpus.iq.issued_per_cycle::8      2801939      1.29%    100.00% # Number of insts issued each cycle
system.switch_cpus.iq.issued_per_cycle::overflows            0      0.00%    100.00% # Number of insts issued each cycle
system.switch_cpus.iq.issued_per_cycle::min_value            0                       # Number of insts issued each cycle
system.switch_cpus.iq.issued_per_cycle::max_value            8                       # Number of insts issued each cycle
system.switch_cpus.iq.issued_per_cycle::total    217527725                       # Number of insts issued each cycle
system.switch_cpus.iq.rate                   2.295887                       # Inst issue rate
system.switch_cpus.iq.vec_alu_accesses              0                       # Number of vector alu accesses
system.switch_cpus.iq.vec_inst_queue_reads            0                       # Number of vector instruction queue reads
system.switch_cpus.iq.vec_inst_queue_wakeup_accesses            0                       # Number of vector instruction queue wakeup accesses
system.switch_cpus.iq.vec_inst_queue_writes            0                       # Number of vector instruction queue writes
system.switch_cpus.memDep0.conflictingLoads     10397629                       # Number of conflicting loads.
system.switch_cpus.memDep0.conflictingStores       633925                       # Number of conflicting stores.
system.switch_cpus.memDep0.insertedLoads     69489862                       # Number of loads inserted to the mem dependence unit.
system.switch_cpus.memDep0.insertedStores     37374846                       # Number of stores inserted to the mem dependence unit.
system.switch_cpus.misc_regfile_reads       175950159                       # number of misc regfile reads
system.switch_cpus.misc_regfile_writes              1                       # number of misc regfile writes
system.switch_cpus.numCycles                217574029                       # number of cpu cycles simulated
system.switch_cpus.numWorkItemsCompleted            0                       # number of work items this cpu completed
system.switch_cpus.numWorkItemsStarted              0                       # number of work items this cpu started
system.switch_cpus.timesIdled                     228                       # Number of times that the entire CPU went into an idle state and unscheduled itself
system.clk_domain.clock                           333                       # Clock period in ticks
system.cpu.dcache.demand_hits::.cpu.data            9                       # number of demand (read+write) hits
system.cpu.dcache.demand_hits::.switch_cpus.data     66434619                       # number of demand (read+write) hits
system.cpu.dcache.demand_hits::total         66434628                       # number of demand (read+write) hits
system.cpu.dcache.overall_hits::.cpu.data            9                       # number of overall hits
system.cpu.dcache.overall_hits::.switch_cpus.data     67923871                       # number of overall hits
system.cpu.dcache.overall_hits::total        67923880                       # number of overall hits
system.cpu.dcache.demand_misses::.cpu.data            3                       # number of demand (read+write) misses
system.cpu.dcache.demand_misses::.switch_cpus.data       332528                       # number of demand (read+write) misses
system.cpu.dcache.demand_misses::total         332531                       # number of demand (read+write) misses
system.cpu.dcache.overall_misses::.cpu.data            5                       # number of overall misses
system.cpu.dcache.overall_misses::.switch_cpus.data       408096                       # number of overall misses
system.cpu.dcache.overall_misses::total        408101                       # number of overall misses
system.cpu.dcache.demand_miss_latency::.switch_cpus.data  17458653870                       # number of demand (read+write) miss cycles
system.cpu.dcache.demand_miss_latency::total  17458653870                       # number of demand (read+write) miss cycles
system.cpu.dcache.overall_miss_latency::.switch_cpus.data  17458653870                       # number of overall miss cycles
system.cpu.dcache.overall_miss_latency::total  17458653870                       # number of overall miss cycles
system.cpu.dcache.demand_accesses::.cpu.data           12                       # number of demand (read+write) accesses
system.cpu.dcache.demand_accesses::.switch_cpus.data     66767147                       # number of demand (read+write) accesses
system.cpu.dcache.demand_accesses::total     66767159                       # number of demand (read+write) accesses
system.cpu.dcache.overall_accesses::.cpu.data           14                       # number of overall (read+write) accesses
system.cpu.dcache.overall_accesses::.switch_cpus.data     68331967                       # number of overall (read+write) accesses
system.cpu.dcache.overall_accesses::total     68331981                       # number of overall (read+write) accesses
system.cpu.dcache.demand_miss_rate::.cpu.data     0.250000                       # miss rate for demand accesses
system.cpu.dcache.demand_miss_rate::.switch_cpus.data     0.004980                       # miss rate for demand accesses
system.cpu.dcache.demand_miss_rate::total     0.004980                       # miss rate for demand accesses
system.cpu.dcache.overall_miss_rate::.cpu.data     0.357143                       # miss rate for overall accesses
system.cpu.dcache.overall_miss_rate::.switch_cpus.data     0.005972                       # miss rate for overall accesses
system.cpu.dcache.overall_miss_rate::total     0.005972                       # miss rate for overall accesses
system.cpu.dcache.demand_avg_miss_latency::.switch_cpus.data 52502.808395                       # average overall miss latency
system.cpu.dcache.demand_avg_miss_latency::total 52502.334730                       # average overall miss latency
system.cpu.dcache.overall_avg_miss_latency::.switch_cpus.data 42780.752249                       # average overall miss latency
system.cpu.dcache.overall_avg_miss_latency::total 42780.228105                       # average overall miss latency
system.cpu.dcache.blocked_cycles::no_mshrs            0                       # number of cycles access was blocked
system.cpu.dcache.blocked_cycles::no_targets       152654                       # number of cycles access was blocked
system.cpu.dcache.blocked::no_mshrs                 0                       # number of cycles access was blocked
system.cpu.dcache.blocked::no_targets             243                       # number of cycles access was blocked
system.cpu.dcache.avg_blocked_cycles::no_mshrs          nan                       # average number of cycles each access was blocked
system.cpu.dcache.avg_blocked_cycles::no_targets   628.205761                       # average number of cycles each access was blocked
system.cpu.dcache.writebacks::.writebacks       226404                       # number of writebacks
system.cpu.dcache.writebacks::total            226404                       # number of writebacks
system.cpu.dcache.demand_mshr_hits::.switch_cpus.data       125275                       # number of demand (read+write) MSHR hits
system.cpu.dcache.demand_mshr_hits::total       125275                       # number of demand (read+write) MSHR hits
system.cpu.dcache.overall_mshr_hits::.switch_cpus.data       125275                       # number of overall MSHR hits
system.cpu.dcache.overall_mshr_hits::total       125275                       # number of overall MSHR hits
system.cpu.dcache.demand_mshr_misses::.switch_cpus.data       207253                       # number of demand (read+write) MSHR misses
system.cpu.dcache.demand_mshr_misses::total       207253                       # number of demand (read+write) MSHR misses
system.cpu.dcache.overall_mshr_misses::.switch_cpus.data       227160                       # number of overall MSHR misses
system.cpu.dcache.overall_mshr_misses::total       227160                       # number of overall MSHR misses
system.cpu.dcache.demand_mshr_miss_latency::.switch_cpus.data   8716929012                       # number of demand (read+write) MSHR miss cycles
system.cpu.dcache.demand_mshr_miss_latency::total   8716929012                       # number of demand (read+write) MSHR miss cycles
system.cpu.dcache.overall_mshr_miss_latency::.switch_cpus.data   9620369001                       # number of overall MSHR miss cycles
system.cpu.dcache.overall_mshr_miss_latency::total   9620369001                       # number of overall MSHR miss cycles
system.cpu.dcache.demand_mshr_miss_rate::.switch_cpus.data     0.003104                       # mshr miss rate for demand accesses
system.cpu.dcache.demand_mshr_miss_rate::total     0.003104                       # mshr miss rate for demand accesses
system.cpu.dcache.overall_mshr_miss_rate::.switch_cpus.data     0.003324                       # mshr miss rate for overall accesses
system.cpu.dcache.overall_mshr_miss_rate::total     0.003324                       # mshr miss rate for overall accesses
system.cpu.dcache.demand_avg_mshr_miss_latency::.switch_cpus.data 42059.362287                       # average overall mshr miss latency
system.cpu.dcache.demand_avg_mshr_miss_latency::total 42059.362287                       # average overall mshr miss latency
system.cpu.dcache.overall_avg_mshr_miss_latency::.switch_cpus.data 42350.629517                       # average overall mshr miss latency
system.cpu.dcache.overall_avg_mshr_miss_latency::total 42350.629517                       # average overall mshr miss latency
system.cpu.dcache.replacements                 226404                       # number of replacements
system.cpu.dcache.ReadReq_hits::.cpu.data            6                       # number of ReadReq hits
system.cpu.dcache.ReadReq_hits::.switch_cpus.data     50517964                       # number of ReadReq hits
system.cpu.dcache.ReadReq_hits::total        50517970                       # number of ReadReq hits
system.cpu.dcache.ReadReq_misses::.cpu.data            2                       # number of ReadReq misses
system.cpu.dcache.ReadReq_misses::.switch_cpus.data       242867                       # number of ReadReq misses
system.cpu.dcache.ReadReq_misses::total        242869                       # number of ReadReq misses
system.cpu.dcache.ReadReq_miss_latency::.switch_cpus.data  12463271586                       # number of ReadReq miss cycles
system.cpu.dcache.ReadReq_miss_latency::total  12463271586                       # number of ReadReq miss cycles
system.cpu.dcache.ReadReq_accesses::.cpu.data            8                       # number of ReadReq accesses(hits+misses)
system.cpu.dcache.ReadReq_accesses::.switch_cpus.data     50760831                       # number of ReadReq accesses(hits+misses)
system.cpu.dcache.ReadReq_accesses::total     50760839                       # number of ReadReq accesses(hits+misses)
system.cpu.dcache.ReadReq_miss_rate::.cpu.data     0.250000                       # miss rate for ReadReq accesses
system.cpu.dcache.ReadReq_miss_rate::.switch_cpus.data     0.004785                       # miss rate for ReadReq accesses
system.cpu.dcache.ReadReq_miss_rate::total     0.004785                       # miss rate for ReadReq accesses
system.cpu.dcache.ReadReq_avg_miss_latency::.switch_cpus.data 51317.270712                       # average ReadReq miss latency
system.cpu.dcache.ReadReq_avg_miss_latency::total 51316.848120                       # average ReadReq miss latency
system.cpu.dcache.ReadReq_mshr_hits::.switch_cpus.data       125183                       # number of ReadReq MSHR hits
system.cpu.dcache.ReadReq_mshr_hits::total       125183                       # number of ReadReq MSHR hits
system.cpu.dcache.ReadReq_mshr_misses::.switch_cpus.data       117684                       # number of ReadReq MSHR misses
system.cpu.dcache.ReadReq_mshr_misses::total       117684                       # number of ReadReq MSHR misses
system.cpu.dcache.ReadReq_mshr_miss_latency::.switch_cpus.data   3754776798                       # number of ReadReq MSHR miss cycles
system.cpu.dcache.ReadReq_mshr_miss_latency::total   3754776798                       # number of ReadReq MSHR miss cycles
system.cpu.dcache.ReadReq_mshr_miss_rate::.switch_cpus.data     0.002318                       # mshr miss rate for ReadReq accesses
system.cpu.dcache.ReadReq_mshr_miss_rate::total     0.002318                       # mshr miss rate for ReadReq accesses
system.cpu.dcache.ReadReq_avg_mshr_miss_latency::.switch_cpus.data 31905.584429                       # average ReadReq mshr miss latency
system.cpu.dcache.ReadReq_avg_mshr_miss_latency::total 31905.584429                       # average ReadReq mshr miss latency
system.cpu.dcache.WriteReq_hits::.cpu.data            3                       # number of WriteReq hits
system.cpu.dcache.WriteReq_hits::.switch_cpus.data     15916655                       # number of WriteReq hits
system.cpu.dcache.WriteReq_hits::total       15916658                       # number of WriteReq hits
system.cpu.dcache.WriteReq_misses::.cpu.data            1                       # number of WriteReq misses
system.cpu.dcache.WriteReq_misses::.switch_cpus.data        89661                       # number of WriteReq misses
system.cpu.dcache.WriteReq_misses::total        89662                       # number of WriteReq misses
system.cpu.dcache.WriteReq_miss_latency::.switch_cpus.data   4995382284                       # number of WriteReq miss cycles
system.cpu.dcache.WriteReq_miss_latency::total   4995382284                       # number of WriteReq miss cycles
system.cpu.dcache.WriteReq_accesses::.cpu.data            4                       # number of WriteReq accesses(hits+misses)
system.cpu.dcache.WriteReq_accesses::.switch_cpus.data     16006316                       # number of WriteReq accesses(hits+misses)
system.cpu.dcache.WriteReq_accesses::total     16006320                       # number of WriteReq accesses(hits+misses)
system.cpu.dcache.WriteReq_miss_rate::.cpu.data     0.250000                       # miss rate for WriteReq accesses
system.cpu.dcache.WriteReq_miss_rate::.switch_cpus.data     0.005602                       # miss rate for WriteReq accesses
system.cpu.dcache.WriteReq_miss_rate::total     0.005602                       # miss rate for WriteReq accesses
system.cpu.dcache.WriteReq_avg_miss_latency::.switch_cpus.data 55714.104059                       # average WriteReq miss latency
system.cpu.dcache.WriteReq_avg_miss_latency::total 55713.482679                       # average WriteReq miss latency
system.cpu.dcache.WriteReq_mshr_hits::.switch_cpus.data           92                       # number of WriteReq MSHR hits
system.cpu.dcache.WriteReq_mshr_hits::total           92                       # number of WriteReq MSHR hits
system.cpu.dcache.WriteReq_mshr_misses::.switch_cpus.data        89569                       # number of WriteReq MSHR misses
system.cpu.dcache.WriteReq_mshr_misses::total        89569                       # number of WriteReq MSHR misses
system.cpu.dcache.WriteReq_mshr_miss_latency::.switch_cpus.data   4962152214                       # number of WriteReq MSHR miss cycles
system.cpu.dcache.WriteReq_mshr_miss_latency::total   4962152214                       # number of WriteReq MSHR miss cycles
system.cpu.dcache.WriteReq_mshr_miss_rate::.switch_cpus.data     0.005596                       # mshr miss rate for WriteReq accesses
system.cpu.dcache.WriteReq_mshr_miss_rate::total     0.005596                       # mshr miss rate for WriteReq accesses
system.cpu.dcache.WriteReq_avg_mshr_miss_latency::.switch_cpus.data 55400.330628                       # average WriteReq mshr miss latency
system.cpu.dcache.WriteReq_avg_mshr_miss_latency::total 55400.330628                       # average WriteReq mshr miss latency
system.cpu.dcache.SoftPFReq_hits::.switch_cpus.data      1489252                       # number of SoftPFReq hits
system.cpu.dcache.SoftPFReq_hits::total       1489252                       # number of SoftPFReq hits
system.cpu.dcache.SoftPFReq_misses::.cpu.data            2                       # number of SoftPFReq misses
system.cpu.dcache.SoftPFReq_misses::.switch_cpus.data        75568                       # number of SoftPFReq misses
system.cpu.dcache.SoftPFReq_misses::total        75570                       # number of SoftPFReq misses
system.cpu.dcache.SoftPFReq_accesses::.cpu.data            2                       # number of SoftPFReq accesses(hits+misses)
system.cpu.dcache.SoftPFReq_accesses::.switch_cpus.data      1564820                       # number of SoftPFReq accesses(hits+misses)
system.cpu.dcache.SoftPFReq_accesses::total      1564822                       # number of SoftPFReq accesses(hits+misses)
system.cpu.dcache.SoftPFReq_miss_rate::.cpu.data            1                       # miss rate for SoftPFReq accesses
system.cpu.dcache.SoftPFReq_miss_rate::.switch_cpus.data     0.048292                       # miss rate for SoftPFReq accesses
system.cpu.dcache.SoftPFReq_miss_rate::total     0.048293                       # miss rate for SoftPFReq accesses
system.cpu.dcache.SoftPFReq_mshr_misses::.switch_cpus.data        19907                       # number of SoftPFReq MSHR misses
system.cpu.dcache.SoftPFReq_mshr_misses::total        19907                       # number of SoftPFReq MSHR misses
system.cpu.dcache.SoftPFReq_mshr_miss_latency::.switch_cpus.data    903439989                       # number of SoftPFReq MSHR miss cycles
system.cpu.dcache.SoftPFReq_mshr_miss_latency::total    903439989                       # number of SoftPFReq MSHR miss cycles
system.cpu.dcache.SoftPFReq_mshr_miss_rate::.switch_cpus.data     0.012722                       # mshr miss rate for SoftPFReq accesses
system.cpu.dcache.SoftPFReq_mshr_miss_rate::total     0.012722                       # mshr miss rate for SoftPFReq accesses
system.cpu.dcache.SoftPFReq_avg_mshr_miss_latency::.switch_cpus.data 45383.030542                       # average SoftPFReq mshr miss latency
system.cpu.dcache.SoftPFReq_avg_mshr_miss_latency::total 45383.030542                       # average SoftPFReq mshr miss latency
system.cpu.dcache.power_state.pwrStateResidencyTicks::UNDEFINED 15022898343720                       # Cumulative time (in ticks) in various power states
system.cpu.dcache.tags.tagsinuse           511.053263                       # Cycle average of tags in use
system.cpu.dcache.tags.total_refs            68151094                       # Total number of references to valid blocks.
system.cpu.dcache.tags.sampled_refs            226916                       # Sample count of references to valid blocks.
system.cpu.dcache.tags.avg_refs            300.336221                       # Average number of references to valid blocks.
system.cpu.dcache.tags.warmup_cycle      14950446183072                       # Cycle when the warmup percentage was hit.
system.cpu.dcache.tags.occ_blocks::.cpu.data     0.019752                       # Average occupied blocks per requestor
system.cpu.dcache.tags.occ_blocks::.switch_cpus.data   511.033511                       # Average occupied blocks per requestor
system.cpu.dcache.tags.occ_percent::.cpu.data     0.000039                       # Average percentage of cache occupancy
system.cpu.dcache.tags.occ_percent::.switch_cpus.data     0.998112                       # Average percentage of cache occupancy
system.cpu.dcache.tags.occ_percent::total     0.998151                       # Average percentage of cache occupancy
system.cpu.dcache.tags.occ_task_id_blocks::1024          512                       # Occupied blocks per task id
system.cpu.dcache.tags.age_task_id_blocks_1024::0           19                       # Occupied blocks per task id
system.cpu.dcache.tags.age_task_id_blocks_1024::1          117                       # Occupied blocks per task id
system.cpu.dcache.tags.age_task_id_blocks_1024::2          374                       # Occupied blocks per task id
system.cpu.dcache.tags.age_task_id_blocks_1024::3            1                       # Occupied blocks per task id
system.cpu.dcache.tags.age_task_id_blocks_1024::4            1                       # Occupied blocks per task id
system.cpu.dcache.tags.occ_task_id_percent::1024            1                       # Percentage of cache occupancy per task id
system.cpu.dcache.tags.tag_accesses         546882764                       # Number of tag accesses
system.cpu.dcache.tags.data_accesses        546882764                       # Number of data accesses
system.cpu.dcache.tags.power_state.pwrStateResidencyTicks::UNDEFINED 15022898343720                       # Cumulative time (in ticks) in various power states
system.cpu.dtb.rdAccesses                          10                       # TLB accesses on read requests
system.cpu.dtb.wrAccesses                           6                       # TLB accesses on write requests
system.cpu.dtb.rdMisses                             0                       # TLB misses on read requests
system.cpu.dtb.wrMisses                             0                       # TLB misses on write requests
system.cpu.dtb.walker.power_state.pwrStateResidencyTicks::UNDEFINED 15022898343720                       # Cumulative time (in ticks) in various power states
system.cpu.icache.demand_hits::.cpu.inst           17                       # number of demand (read+write) hits
system.cpu.icache.demand_hits::.switch_cpus.inst     68171202                       # number of demand (read+write) hits
system.cpu.icache.demand_hits::total         68171219                       # number of demand (read+write) hits
system.cpu.icache.overall_hits::.cpu.inst           17                       # number of overall hits
system.cpu.icache.overall_hits::.switch_cpus.inst     68171202                       # number of overall hits
system.cpu.icache.overall_hits::total        68171219                       # number of overall hits
system.cpu.icache.demand_misses::.cpu.inst            2                       # number of demand (read+write) misses
system.cpu.icache.demand_misses::.switch_cpus.inst          475                       # number of demand (read+write) misses
system.cpu.icache.demand_misses::total            477                       # number of demand (read+write) misses
system.cpu.icache.overall_misses::.cpu.inst            2                       # number of overall misses
system.cpu.icache.overall_misses::.switch_cpus.inst          475                       # number of overall misses
system.cpu.icache.overall_misses::total           477                       # number of overall misses
system.cpu.icache.demand_miss_latency::.switch_cpus.inst     36727236                       # number of demand (read+write) miss cycles
system.cpu.icache.demand_miss_latency::total     36727236                       # number of demand (read+write) miss cycles
system.cpu.icache.overall_miss_latency::.switch_cpus.inst     36727236                       # number of overall miss cycles
system.cpu.icache.overall_miss_latency::total     36727236                       # number of overall miss cycles
system.cpu.icache.demand_accesses::.cpu.inst           19                       # number of demand (read+write) accesses
system.cpu.icache.demand_accesses::.switch_cpus.inst     68171677                       # number of demand (read+write) accesses
system.cpu.icache.demand_accesses::total     68171696                       # number of demand (read+write) accesses
system.cpu.icache.overall_accesses::.cpu.inst           19                       # number of overall (read+write) accesses
system.cpu.icache.overall_accesses::.switch_cpus.inst     68171677                       # number of overall (read+write) accesses
system.cpu.icache.overall_accesses::total     68171696                       # number of overall (read+write) accesses
system.cpu.icache.demand_miss_rate::.cpu.inst     0.105263                       # miss rate for demand accesses
system.cpu.icache.demand_miss_rate::.switch_cpus.inst     0.000007                       # miss rate for demand accesses
system.cpu.icache.demand_miss_rate::total     0.000007                       # miss rate for demand accesses
system.cpu.icache.overall_miss_rate::.cpu.inst     0.105263                       # miss rate for overall accesses
system.cpu.icache.overall_miss_rate::.switch_cpus.inst     0.000007                       # miss rate for overall accesses
system.cpu.icache.overall_miss_rate::total     0.000007                       # miss rate for overall accesses
system.cpu.icache.demand_avg_miss_latency::.switch_cpus.inst 77320.496842                       # average overall miss latency
system.cpu.icache.demand_avg_miss_latency::total 76996.301887                       # average overall miss latency
system.cpu.icache.overall_avg_miss_latency::.switch_cpus.inst 77320.496842                       # average overall miss latency
system.cpu.icache.overall_avg_miss_latency::total 76996.301887                       # average overall miss latency
system.cpu.icache.blocked_cycles::no_mshrs            0                       # number of cycles access was blocked
system.cpu.icache.blocked_cycles::no_targets            0                       # number of cycles access was blocked
system.cpu.icache.blocked::no_mshrs                 0                       # number of cycles access was blocked
system.cpu.icache.blocked::no_targets               0                       # number of cycles access was blocked
system.cpu.icache.avg_blocked_cycles::no_mshrs          nan                       # average number of cycles each access was blocked
system.cpu.icache.avg_blocked_cycles::no_targets          nan                       # average number of cycles each access was blocked
system.cpu.icache.demand_mshr_hits::.switch_cpus.inst          137                       # number of demand (read+write) MSHR hits
system.cpu.icache.demand_mshr_hits::total          137                       # number of demand (read+write) MSHR hits
system.cpu.icache.overall_mshr_hits::.switch_cpus.inst          137                       # number of overall MSHR hits
system.cpu.icache.overall_mshr_hits::total          137                       # number of overall MSHR hits
system.cpu.icache.demand_mshr_misses::.switch_cpus.inst          338                       # number of demand (read+write) MSHR misses
system.cpu.icache.demand_mshr_misses::total          338                       # number of demand (read+write) MSHR misses
system.cpu.icache.overall_mshr_misses::.switch_cpus.inst          338                       # number of overall MSHR misses
system.cpu.icache.overall_mshr_misses::total          338                       # number of overall MSHR misses
system.cpu.icache.demand_mshr_miss_latency::.switch_cpus.inst     27987651                       # number of demand (read+write) MSHR miss cycles
system.cpu.icache.demand_mshr_miss_latency::total     27987651                       # number of demand (read+write) MSHR miss cycles
system.cpu.icache.overall_mshr_miss_latency::.switch_cpus.inst     27987651                       # number of overall MSHR miss cycles
system.cpu.icache.overall_mshr_miss_latency::total     27987651                       # number of overall MSHR miss cycles
system.cpu.icache.demand_mshr_miss_rate::.switch_cpus.inst     0.000005                       # mshr miss rate for demand accesses
system.cpu.icache.demand_mshr_miss_rate::total     0.000005                       # mshr miss rate for demand accesses
system.cpu.icache.overall_mshr_miss_rate::.switch_cpus.inst     0.000005                       # mshr miss rate for overall accesses
system.cpu.icache.overall_mshr_miss_rate::total     0.000005                       # mshr miss rate for overall accesses
system.cpu.icache.demand_avg_mshr_miss_latency::.switch_cpus.inst 82803.701183                       # average overall mshr miss latency
system.cpu.icache.demand_avg_mshr_miss_latency::total 82803.701183                       # average overall mshr miss latency
system.cpu.icache.overall_avg_mshr_miss_latency::.switch_cpus.inst 82803.701183                       # average overall mshr miss latency
system.cpu.icache.overall_avg_mshr_miss_latency::total 82803.701183                       # average overall mshr miss latency
system.cpu.icache.replacements                      0                       # number of replacements
system.cpu.icache.ReadReq_hits::.cpu.inst           17                       # number of ReadReq hits
system.cpu.icache.ReadReq_hits::.switch_cpus.inst     68171202                       # number of ReadReq hits
system.cpu.icache.ReadReq_hits::total        68171219                       # number of ReadReq hits
system.cpu.icache.ReadReq_misses::.cpu.inst            2                       # number of ReadReq misses
system.cpu.icache.ReadReq_misses::.switch_cpus.inst          475                       # number of ReadReq misses
system.cpu.icache.ReadReq_misses::total           477                       # number of ReadReq misses
system.cpu.icache.ReadReq_miss_latency::.switch_cpus.inst     36727236                       # number of ReadReq miss cycles
system.cpu.icache.ReadReq_miss_latency::total     36727236                       # number of ReadReq miss cycles
system.cpu.icache.ReadReq_accesses::.cpu.inst           19                       # number of ReadReq accesses(hits+misses)
system.cpu.icache.ReadReq_accesses::.switch_cpus.inst     68171677                       # number of ReadReq accesses(hits+misses)
system.cpu.icache.ReadReq_accesses::total     68171696                       # number of ReadReq accesses(hits+misses)
system.cpu.icache.ReadReq_miss_rate::.cpu.inst     0.105263                       # miss rate for ReadReq accesses
system.cpu.icache.ReadReq_miss_rate::.switch_cpus.inst     0.000007                       # miss rate for ReadReq accesses
system.cpu.icache.ReadReq_miss_rate::total     0.000007                       # miss rate for ReadReq accesses
system.cpu.icache.ReadReq_avg_miss_latency::.switch_cpus.inst 77320.496842                       # average ReadReq miss latency
system.cpu.icache.ReadReq_avg_miss_latency::total 76996.301887                       # average ReadReq miss latency
system.cpu.icache.ReadReq_mshr_hits::.switch_cpus.inst          137                       # number of ReadReq MSHR hits
system.cpu.icache.ReadReq_mshr_hits::total          137                       # number of ReadReq MSHR hits
system.cpu.icache.ReadReq_mshr_misses::.switch_cpus.inst          338                       # number of ReadReq MSHR misses
system.cpu.icache.ReadReq_mshr_misses::total          338                       # number of ReadReq MSHR misses
system.cpu.icache.ReadReq_mshr_miss_latency::.switch_cpus.inst     27987651                       # number of ReadReq MSHR miss cycles
system.cpu.icache.ReadReq_mshr_miss_latency::total     27987651                       # number of ReadReq MSHR miss cycles
system.cpu.icache.ReadReq_mshr_miss_rate::.switch_cpus.inst     0.000005                       # mshr miss rate for ReadReq accesses
system.cpu.icache.ReadReq_mshr_miss_rate::total     0.000005                       # mshr miss rate for ReadReq accesses
system.cpu.icache.ReadReq_avg_mshr_miss_latency::.switch_cpus.inst 82803.701183                       # average ReadReq mshr miss latency
system.cpu.icache.ReadReq_avg_mshr_miss_latency::total 82803.701183                       # average ReadReq mshr miss latency
system.cpu.icache.power_state.pwrStateResidencyTicks::UNDEFINED 15022898343720                       # Cumulative time (in ticks) in various power states
system.cpu.icache.tags.tagsinuse           332.129878                       # Cycle average of tags in use
system.cpu.icache.tags.total_refs            68171559                       # Total number of references to valid blocks.
system.cpu.icache.tags.sampled_refs               340                       # Sample count of references to valid blocks.
system.cpu.icache.tags.avg_refs          200504.585294                       # Average number of references to valid blocks.
system.cpu.icache.tags.warmup_cycle      14950446182073                       # Cycle when the warmup percentage was hit.
system.cpu.icache.tags.occ_blocks::.cpu.inst     2.000000                       # Average occupied blocks per requestor
system.cpu.icache.tags.occ_blocks::.switch_cpus.inst   330.129878                       # Average occupied blocks per requestor
system.cpu.icache.tags.occ_percent::.cpu.inst     0.003906                       # Average percentage of cache occupancy
system.cpu.icache.tags.occ_percent::.switch_cpus.inst     0.644785                       # Average percentage of cache occupancy
system.cpu.icache.tags.occ_percent::total     0.648691                       # Average percentage of cache occupancy
system.cpu.icache.tags.occ_task_id_blocks::1024          338                       # Occupied blocks per task id
system.cpu.icache.tags.age_task_id_blocks_1024::2            1                       # Occupied blocks per task id
system.cpu.icache.tags.age_task_id_blocks_1024::4          337                       # Occupied blocks per task id
system.cpu.icache.tags.occ_task_id_percent::1024     0.660156                       # Percentage of cache occupancy per task id
system.cpu.icache.tags.tag_accesses         545373908                       # Number of tag accesses
system.cpu.icache.tags.data_accesses        545373908                       # Number of data accesses
system.cpu.icache.tags.power_state.pwrStateResidencyTicks::UNDEFINED 15022898343720                       # Cumulative time (in ticks) in various power states
system.cpu.interrupts.clk_domain.clock           5328                       # Clock period in ticks
system.cpu.itb.rdAccesses                           0                       # TLB accesses on read requests
system.cpu.itb.wrAccesses                          19                       # TLB accesses on write requests
system.cpu.itb.rdMisses                             0                       # TLB misses on read requests
system.cpu.itb.wrMisses                             0                       # TLB misses on write requests
system.cpu.itb.walker.power_state.pwrStateResidencyTicks::UNDEFINED 15022898343720                       # Cumulative time (in ticks) in various power states
system.cpu.l2bus.trans_dist::ReadResp          137935                       # Transaction distribution
system.cpu.l2bus.trans_dist::WritebackDirty       197450                       # Transaction distribution
system.cpu.l2bus.trans_dist::WritebackClean       131530                       # Transaction distribution
system.cpu.l2bus.trans_dist::UpgradeReq           249                       # Transaction distribution
system.cpu.l2bus.trans_dist::UpgradeResp          249                       # Transaction distribution
system.cpu.l2bus.trans_dist::ReadExReq          89321                       # Transaction distribution
system.cpu.l2bus.trans_dist::ReadExResp         89321                       # Transaction distribution
system.cpu.l2bus.trans_dist::ReadSharedReq       137935                       # Transaction distribution
system.cpu.l2bus.pkt_count_system.cpu.icache.mem_side_port::system.cpu.l2cache.cpu_side_port          678                       # Packet count per connected requestor and responder (bytes)
system.cpu.l2bus.pkt_count_system.cpu.dcache.mem_side_port::system.cpu.l2cache.cpu_side_port       680734                       # Packet count per connected requestor and responder (bytes)
system.cpu.l2bus.pkt_count::total              681412                       # Packet count per connected requestor and responder (bytes)
system.cpu.l2bus.pkt_size_system.cpu.icache.mem_side_port::system.cpu.l2cache.cpu_side_port        21632                       # Cumulative packet size per connected requestor and responder (bytes)
system.cpu.l2bus.pkt_size_system.cpu.dcache.mem_side_port::system.cpu.l2cache.cpu_side_port     29012480                       # Cumulative packet size per connected requestor and responder (bytes)
system.cpu.l2bus.pkt_size::total             29034112                       # Cumulative packet size per connected requestor and responder (bytes)
system.cpu.l2bus.snoops                        102578                       # Total snoops (count)
system.cpu.l2bus.snoopTraffic                 6564992                       # Total snoop traffic (bytes)
system.cpu.l2bus.snoop_fanout::samples         330081                       # Request fanout histogram
system.cpu.l2bus.snoop_fanout::mean          0.002024                       # Request fanout histogram
system.cpu.l2bus.snoop_fanout::stdev         0.044941                       # Request fanout histogram
system.cpu.l2bus.snoop_fanout::underflows            0      0.00%      0.00% # Request fanout histogram
system.cpu.l2bus.snoop_fanout::0               329413     99.80%     99.80% # Request fanout histogram
system.cpu.l2bus.snoop_fanout::1                  668      0.20%    100.00% # Request fanout histogram
system.cpu.l2bus.snoop_fanout::2                    0      0.00%    100.00% # Request fanout histogram
system.cpu.l2bus.snoop_fanout::3                    0      0.00%    100.00% # Request fanout histogram
system.cpu.l2bus.snoop_fanout::overflows            0      0.00%    100.00% # Request fanout histogram
system.cpu.l2bus.snoop_fanout::min_value            0                       # Request fanout histogram
system.cpu.l2bus.snoop_fanout::max_value            1                       # Request fanout histogram
system.cpu.l2bus.snoop_fanout::total           330081                       # Request fanout histogram
system.cpu.l2bus.power_state.pwrStateResidencyTicks::UNDEFINED 15022898343720                       # Cumulative time (in ticks) in various power states
system.cpu.l2bus.reqLayer0.occupancy        301934430                       # Layer occupancy (ticks)
system.cpu.l2bus.reqLayer0.utilization            0.4                       # Layer utilization (%)
system.cpu.l2bus.respLayer0.occupancy          337662                       # Layer occupancy (ticks)
system.cpu.l2bus.respLayer0.utilization           0.0                       # Layer utilization (%)
system.cpu.l2bus.respLayer1.occupancy       226767006                       # Layer occupancy (ticks)
system.cpu.l2bus.respLayer1.utilization           0.3                       # Layer utilization (%)
system.cpu.l2cache.demand_hits::.switch_cpus.data       120621                       # number of demand (read+write) hits
system.cpu.l2cache.demand_hits::total          120621                       # number of demand (read+write) hits
system.cpu.l2cache.overall_hits::.switch_cpus.data       120621                       # number of overall hits
system.cpu.l2cache.overall_hits::total         120621                       # number of overall hits
system.cpu.l2cache.demand_misses::.cpu.inst            2                       # number of demand (read+write) misses
system.cpu.l2cache.demand_misses::.cpu.data            5                       # number of demand (read+write) misses
system.cpu.l2cache.demand_misses::.switch_cpus.inst          336                       # number of demand (read+write) misses
system.cpu.l2cache.demand_misses::.switch_cpus.data       106290                       # number of demand (read+write) misses
system.cpu.l2cache.demand_misses::total        106633                       # number of demand (read+write) misses
system.cpu.l2cache.overall_misses::.cpu.inst            2                       # number of overall misses
system.cpu.l2cache.overall_misses::.cpu.data            5                       # number of overall misses
system.cpu.l2cache.overall_misses::.switch_cpus.inst          336                       # number of overall misses
system.cpu.l2cache.overall_misses::.switch_cpus.data       106290                       # number of overall misses
system.cpu.l2cache.overall_misses::total       106633                       # number of overall misses
system.cpu.l2cache.demand_miss_latency::.switch_cpus.inst     27756549                       # number of demand (read+write) miss cycles
system.cpu.l2cache.demand_miss_latency::.switch_cpus.data   9015065244                       # number of demand (read+write) miss cycles
system.cpu.l2cache.demand_miss_latency::total   9042821793                       # number of demand (read+write) miss cycles
system.cpu.l2cache.overall_miss_latency::.switch_cpus.inst     27756549                       # number of overall miss cycles
system.cpu.l2cache.overall_miss_latency::.switch_cpus.data   9015065244                       # number of overall miss cycles
system.cpu.l2cache.overall_miss_latency::total   9042821793                       # number of overall miss cycles
system.cpu.l2cache.demand_accesses::.cpu.inst            2                       # number of demand (read+write) accesses
system.cpu.l2cache.demand_accesses::.cpu.data            5                       # number of demand (read+write) accesses
system.cpu.l2cache.demand_accesses::.switch_cpus.inst          336                       # number of demand (read+write) accesses
system.cpu.l2cache.demand_accesses::.switch_cpus.data       226911                       # number of demand (read+write) accesses
system.cpu.l2cache.demand_accesses::total       227254                       # number of demand (read+write) accesses
system.cpu.l2cache.overall_accesses::.cpu.inst            2                       # number of overall (read+write) accesses
system.cpu.l2cache.overall_accesses::.cpu.data            5                       # number of overall (read+write) accesses
system.cpu.l2cache.overall_accesses::.switch_cpus.inst          336                       # number of overall (read+write) accesses
system.cpu.l2cache.overall_accesses::.switch_cpus.data       226911                       # number of overall (read+write) accesses
system.cpu.l2cache.overall_accesses::total       227254                       # number of overall (read+write) accesses
system.cpu.l2cache.demand_miss_rate::.cpu.inst            1                       # miss rate for demand accesses
system.cpu.l2cache.demand_miss_rate::.cpu.data            1                       # miss rate for demand accesses
system.cpu.l2cache.demand_miss_rate::.switch_cpus.inst            1                       # miss rate for demand accesses
system.cpu.l2cache.demand_miss_rate::.switch_cpus.data     0.468422                       # miss rate for demand accesses
system.cpu.l2cache.demand_miss_rate::total     0.469224                       # miss rate for demand accesses
system.cpu.l2cache.overall_miss_rate::.cpu.inst            1                       # miss rate for overall accesses
system.cpu.l2cache.overall_miss_rate::.cpu.data            1                       # miss rate for overall accesses
system.cpu.l2cache.overall_miss_rate::.switch_cpus.inst            1                       # miss rate for overall accesses
system.cpu.l2cache.overall_miss_rate::.switch_cpus.data     0.468422                       # miss rate for overall accesses
system.cpu.l2cache.overall_miss_rate::total     0.469224                       # miss rate for overall accesses
system.cpu.l2cache.demand_avg_miss_latency::.switch_cpus.inst 82608.776786                       # average overall miss latency
system.cpu.l2cache.demand_avg_miss_latency::.switch_cpus.data 84815.742252                       # average overall miss latency
system.cpu.l2cache.demand_avg_miss_latency::total 84803.220326                       # average overall miss latency
system.cpu.l2cache.overall_avg_miss_latency::.switch_cpus.inst 82608.776786                       # average overall miss latency
system.cpu.l2cache.overall_avg_miss_latency::.switch_cpus.data 84815.742252                       # average overall miss latency
system.cpu.l2cache.overall_avg_miss_latency::total 84803.220326                       # average overall miss latency
system.cpu.l2cache.blocked_cycles::no_mshrs            0                       # number of cycles access was blocked
system.cpu.l2cache.blocked_cycles::no_targets            0                       # number of cycles access was blocked
system.cpu.l2cache.blocked::no_mshrs                0                       # number of cycles access was blocked
system.cpu.l2cache.blocked::no_targets              0                       # number of cycles access was blocked
system.cpu.l2cache.avg_blocked_cycles::no_mshrs          nan                       # average number of cycles each access was blocked
system.cpu.l2cache.avg_blocked_cycles::no_targets          nan                       # average number of cycles each access was blocked
system.cpu.l2cache.writebacks::.writebacks       102576                       # number of writebacks
system.cpu.l2cache.writebacks::total           102576                       # number of writebacks
[...]
system.switch_cpus.commit.numCommittedDist::0     71408688     38.74%     38.74% # Number of insts commited each cycle
system.switch_cpus.commit.numCommittedDist::1     43655031     23.68%     62.42% # Number of insts commited each cycle
system.switch_cpus.commit.numCommittedDist::2      9690456      5.26%     67.68% # Number of insts commited each cycle
system.switch_cpus.commit.numCommittedDist::3     24791708     13.45%     81.13% # Number of insts commited each cycle
system.switch_cpus.commit.numCommittedDist::4      8367657      4.54%     85.67% # Number of insts commited each cycle
system.switch_cpus.commit.numCommittedDist::5      4537767      2.46%     88.13% # Number of insts commited each cycle
system.switch_cpus.commit.numCommittedDist::6      2060573      1.12%     89.25% # Number of insts commited each cycle
system.switch_cpus.commit.numCommittedDist::7      1747773      0.95%     90.20% # Number of insts commited each cycle
system.switch_cpus.commit.numCommittedDist::8     18072015      9.80%    100.00% # Number of insts commited each cycle
system.switch_cpus.commit.numCommittedDist::overflows            0      0.00%    100.00% # Number of insts commited each cycle
system.switch_cpus.commit.numCommittedDist::min_value            0                       # Number of insts commited each cycle
system.switch_cpus.commit.numCommittedDist::max_value            8                       # Number of insts commited each cycle
system.switch_cpus.commit.numCommittedDist::total    184331668                       # Number of insts commited each cycle
system.switch_cpus.commit.instsCommitted    250000001                       # Number of instructions committed
system.switch_cpus.commit.opsCommitted      362744499                       # Number of ops (including micro ops) committed
system.switch_cpus.commit.memRefs            52985733                       # Number of memory references committed
system.switch_cpus.commit.loads              36998723                       # Number of loads committed
system.switch_cpus.commit.amos                      0                       # Number of atomic instructions committed
system.switch_cpus.commit.membars                   0                       # Number of memory barriers committed
system.switch_cpus.commit.branches           29678280                       # Number of branches committed
system.switch_cpus.commit.vector                    0                       # Number of committed Vector instructions.
system.switch_cpus.commit.floating            1294826                       # Number of committed floating point instructions.
system.switch_cpus.commit.integer           362743103                       # Number of committed integer instructions.
system.switch_cpus.commit.functionCalls         66834                       # Number of function calls committed.
system.switch_cpus.commit.committedInstType_0::No_OpClass          668      0.00%      0.00% # Class of committed instruction
system.switch_cpus.commit.committedInstType_0::IntAlu    300786245     82.92%     82.92% # Class of committed instruction
system.switch_cpus.commit.committedInstType_0::IntMult      8971853      2.47%     85.39% # Class of committed instruction
system.switch_cpus.commit.committedInstType_0::IntDiv            0      0.00%     85.39% # Class of committed instruction
system.switch_cpus.commit.committedInstType_0::FloatAdd            0      0.00%     85.39% # Class of committed instruction
system.switch_cpus.commit.committedInstType_0::FloatCmp            0      0.00%     85.39% # Class of committed instruction
system.switch_cpus.commit.committedInstType_0::FloatCvt            0      0.00%     85.39% # Class of committed instruction
system.switch_cpus.commit.committedInstType_0::FloatMult            0      0.00%     85.39% # Class of committed instruction
system.switch_cpus.commit.committedInstType_0::FloatMultAcc            0      0.00%     85.39% # Class of committed instruction
system.switch_cpus.commit.committedInstType_0::FloatDiv            0      0.00%     85.39% # Class of committed instruction
system.switch_cpus.commit.committedInstType_0::FloatMisc            0      0.00%     85.39% # Class of committed instruction
system.switch_cpus.commit.committedInstType_0::FloatSqrt            0      0.00%     85.39% # Class of committed instruction
system.switch_cpus.commit.committedInstType_0::SimdAdd            0      0.00%     85.39% # Class of committed instruction
system.switch_cpus.commit.committedInstType_0::SimdAddAcc            0      0.00%     85.39% # Class of committed instruction
system.switch_cpus.commit.committedInstType_0::SimdAlu            0      0.00%     85.39% # Class of committed instruction
system.switch_cpus.commit.committedInstType_0::SimdCmp            0      0.00%     85.39% # Class of committed instruction
system.switch_cpus.commit.committedInstType_0::SimdCvt            0      0.00%     85.39% # Class of committed instruction
system.switch_cpus.commit.committedInstType_0::SimdMisc            0      0.00%     85.39% # Class of committed instruction
system.switch_cpus.commit.committedInstType_0::SimdMult            0      0.00%     85.39% # Class of committed instruction
system.switch_cpus.commit.committedInstType_0::SimdMultAcc            0      0.00%     85.39% # Class of committed instruction
system.switch_cpus.commit.committedInstType_0::SimdShift            0      0.00%     85.39% # Class of committed instruction
system.switch_cpus.commit.committedInstType_0::SimdShiftAcc            0      0.00%     85.39% # Class of committed instruction
system.switch_cpus.commit.committedInstType_0::SimdDiv            0      0.00%     85.39% # Class of committed instruction
system.switch_cpus.commit.committedInstType_0::SimdSqrt            0      0.00%     85.39% # Class of committed instruction
system.switch_cpus.commit.committedInstType_0::SimdFloatAdd            0      0.00%     85.39% # Class of committed instruction
system.switch_cpus.commit.committedInstType_0::SimdFloatAlu            0      0.00%     85.39% # Class of committed instruction
system.switch_cpus.commit.committedInstType_0::SimdFloatCmp            0      0.00%     85.39% # Class of committed instruction
system.switch_cpus.commit.committedInstType_0::SimdFloatCvt            0      0.00%     85.39% # Class of committed instruction
system.switch_cpus.commit.committedInstType_0::SimdFloatDiv            0      0.00%     85.39% # Class of committed instruction
system.switch_cpus.commit.committedInstType_0::SimdFloatMisc            0      0.00%     85.39% # Class of committed instruction
system.switch_cpus.commit.committedInstType_0::SimdFloatMult            0      0.00%     85.39% # Class of committed instruction
system.switch_cpus.commit.committedInstType_0::SimdFloatMultAcc            0      0.00%     85.39% # Class of committed instruction
system.switch_cpus.commit.committedInstType_0::SimdFloatSqrt            0      0.00%     85.39% # Class of committed instruction
system.switch_cpus.commit.committedInstType_0::SimdReduceAdd            0      0.00%     85.39% # Class of committed instruction
system.switch_cpus.commit.committedInstType_0::SimdReduceAlu            0      0.00%     85.39% # Class of committed instruction
system.switch_cpus.commit.committedInstType_0::SimdReduceCmp            0      0.00%     85.39% # Class of committed instruction
system.switch_cpus.commit.committedInstType_0::SimdFloatReduceAdd            0      0.00%     85.39% # Class of committed instruction
system.switch_cpus.commit.committedInstType_0::SimdFloatReduceCmp            0      0.00%     85.39% # Class of committed instruction
system.switch_cpus.commit.committedInstType_0::SimdAes            0      0.00%     85.39% # Class of committed instruction
system.switch_cpus.commit.committedInstType_0::SimdAesMix            0      0.00%     85.39% # Class of committed instruction
system.switch_cpus.commit.committedInstType_0::SimdSha1Hash            0      0.00%     85.39% # Class of committed instruction
system.switch_cpus.commit.committedInstType_0::SimdSha1Hash2            0      0.00%     85.39% # Class of committed instruction
system.switch_cpus.commit.committedInstType_0::SimdSha256Hash            0      0.00%     85.39% # Class of committed instruction
system.switch_cpus.commit.committedInstType_0::SimdSha256Hash2            0      0.00%     85.39% # Class of committed instruction
system.switch_cpus.commit.committedInstType_0::SimdShaSigma2            0      0.00%     85.39% # Class of committed instruction
system.switch_cpus.commit.committedInstType_0::SimdShaSigma3            0      0.00%     85.39% # Class of committed instruction
system.switch_cpus.commit.committedInstType_0::SimdPredAlu            0      0.00%     85.39% # Class of committed instruction
system.switch_cpus.commit.committedInstType_0::MemRead     36351317     10.02%     95.41% # Class of committed instruction
system.switch_cpus.commit.committedInstType_0::MemWrite     15339590      4.23%     99.64% # Class of committed instruction
system.switch_cpus.commit.committedInstType_0::FloatMemRead       647406      0.18%     99.82% # Class of committed instruction
system.switch_cpus.commit.committedInstType_0::FloatMemWrite       647420      0.18%    100.00% # Class of committed instruction
system.switch_cpus.commit.committedInstType_0::IprAccess            0      0.00%    100.00% # Class of committed instruction
system.switch_cpus.commit.committedInstType_0::InstPrefetch            0      0.00%    100.00% # Class of committed instruction
system.switch_cpus.commit.committedInstType_0::total    362744499                       # Class of committed instruction
system.switch_cpus.commit.commitEligibleSamples     18072015                       # number cycles where commit BW limit reached
system.switch_cpus.decode.idleCycles         18843006                       # Number of cycles decode is idle
system.switch_cpus.decode.blockedCycles     102893233                       # Number of cycles decode is blocked
system.switch_cpus.decode.runCycles          62119046                       # Number of cycles decode is running
system.switch_cpus.decode.unblockCycles      30375321                       # Number of cycles decode is unblocking
system.switch_cpus.decode.squashCycles        3297115                       # Number of cycles decode is squashing
system.switch_cpus.decode.branchResolved     37044521                       # Number of times decode resolved a  branch
system.switch_cpus.decode.branchMispred          2066                       # Number of times decode detected a branch misprediction
system.switch_cpus.decode.decodedInsts      668762839                       # Number of instructions handled by decode
system.switch_cpus.decode.squashedInsts          5115                       # Number of squashed instructions handled by decode
system.switch_cpus.dtb.rdAccesses            59384932                       # TLB accesses on read requests
system.switch_cpus.dtb.wrAccesses            26482652                       # TLB accesses on write requests
system.switch_cpus.dtb.rdMisses                 37044                       # TLB misses on read requests
system.switch_cpus.dtb.wrMisses                  1760                       # TLB misses on write requests
system.switch_cpus.dtb.walker.power_state.pwrStateResidencyTicks::UNDEFINED 15022898343720                       # Cumulative time (in ticks) in various power states
system.switch_cpus.fetch.icacheStallCycles      2984390                       # Number of cycles fetch is stalled on an Icache miss
system.switch_cpus.fetch.insts              509809655                       # Number of instructions fetch has processed
system.switch_cpus.fetch.branches            59513431                       # Number of branches that fetch encountered
system.switch_cpus.fetch.predictedBranches     41154342                       # Number of branches that fetch has predicted taken
system.switch_cpus.fetch.cycles             211244115                       # Number of cycles fetch has run and was not squashing or blocked
system.switch_cpus.fetch.squashCycles         6598326                       # Number of cycles fetch has spent squashing
system.switch_cpus.fetch.miscStallCycles            7                       # Number of cycles fetch has spent waiting on interrupts,or bad addresses, or out of MSHRs
system.switch_cpus.fetch.pendingTrapStallCycles           50                       # Number of stall cycles due to pending traps
system.switch_cpus.fetch.cacheLines          68171677                       # Number of cache lines fetched
system.switch_cpus.fetch.icacheSquashes           252                       # Number of outstanding Icache misses that were squashed
system.switch_cpus.fetch.nisnDist::samples    217527725                       # Number of instructions fetched each cycle (Total)
system.switch_cpus.fetch.nisnDist::mean      3.456079                       # Number of instructions fetched each cycle (Total)
system.switch_cpus.fetch.nisnDist::stdev     3.355496                       # Number of instructions fetched each cycle (Total)
system.switch_cpus.fetch.nisnDist::underflows            0      0.00%      0.00% # Number of instructions fetched each cycle (Total)
system.switch_cpus.fetch.nisnDist::0         80694667     37.10%     37.10% # Number of instructions fetched each cycle (Total)
system.switch_cpus.fetch.nisnDist::1         12440022      5.72%     42.82% # Number of instructions fetched each cycle (Total)
system.switch_cpus.fetch.nisnDist::2         14800484      6.80%     49.62% # Number of instructions fetched each cycle (Total)
system.switch_cpus.fetch.nisnDist::3         11138489      5.12%     54.74% # Number of instructions fetched each cycle (Total)
system.switch_cpus.fetch.nisnDist::4         11837554      5.44%     60.18% # Number of instructions fetched each cycle (Total)
system.switch_cpus.fetch.nisnDist::5         14189010      6.52%     66.70% # Number of instructions fetched each cycle (Total)
system.switch_cpus.fetch.nisnDist::6          8392161      3.86%     70.56% # Number of instructions fetched each cycle (Total)
system.switch_cpus.fetch.nisnDist::7          4594478      2.11%     72.67% # Number of instructions fetched each cycle (Total)
system.switch_cpus.fetch.nisnDist::8         59440860     27.33%    100.00% # Number of instructions fetched each cycle (Total)
system.switch_cpus.fetch.nisnDist::overflows            0      0.00%    100.00% # Number of instructions fetched each cycle (Total)
system.switch_cpus.fetch.nisnDist::min_value            0                       # Number of instructions fetched each cycle (Total)
system.switch_cpus.fetch.nisnDist::max_value            8                       # Number of instructions fetched each cycle (Total)
system.switch_cpus.fetch.nisnDist::total    217527725                       # Number of instructions fetched each cycle (Total)
system.switch_cpus.fetch.branchRate          0.273532                       # Number of branch fetches per cycle
system.switch_cpus.fetch.rate                2.343155                       # Number of inst fetches per cycle
system.switch_cpus.itb.rdAccesses                   0                       # TLB accesses on read requests
system.switch_cpus.itb.wrAccesses            68171688                       # TLB accesses on write requests
system.switch_cpus.itb.rdMisses                     0                       # TLB misses on read requests
system.switch_cpus.itb.wrMisses                    31                       # TLB misses on write requests
system.switch_cpus.itb.walker.power_state.pwrStateResidencyTicks::UNDEFINED 15022898343720                       # Cumulative time (in ticks) in various power states
system.switch_cpus.lsq0.forwLoads             7056424                       # Number of loads that had data forwarded from stores
system.switch_cpus.lsq0.squashedLoads        32491136                       # Number of loads squashed
system.switch_cpus.lsq0.ignoredResponses         7083                       # Number of memory responses ignored because the instruction is squashed
system.switch_cpus.lsq0.memOrderViolation        19667                       # Number of memory ordering violations
system.switch_cpus.lsq0.squashedStores       21387834                       # Number of stores squashed
system.switch_cpus.lsq0.rescheduledLoads            4                       # Number of loads that were rescheduled
system.switch_cpus.lsq0.blockedByCache            243                       # Number of times an access to memory failed due to the cache being blocked
system.switch_cpus.power_state.pwrStateResidencyTicks::OFF  72452161980                       # Cumulative time (in ticks) in various power states
system.switch_cpus.rename.squashCycles        3297115                       # Number of cycles rename is squashing
system.switch_cpus.rename.idleCycles         30882940                       # Number of cycles rename is idle
system.switch_cpus.rename.blockCycles        47072565                       # Number of cycles rename is blocking
system.switch_cpus.rename.serializeStallCycles            0                       # count of cycles rename stalledfor serializing inst
system.switch_cpus.rename.runCycles          79909178                       # Number of cycles rename is running
system.switch_cpus.rename.unblockCycles      56365923                       # Number of cycles rename is unblocking
system.switch_cpus.rename.renamedInsts      650175576                       # Number of instructions processed by rename
system.switch_cpus.rename.ROBFullEvents         36427                       # Number of times rename has blocked due to ROB full
system.switch_cpus.rename.IQFullEvents       40964438                       # Number of times rename has blocked due to IQ full
system.switch_cpus.rename.LQFullEvents          39115                       # Number of times rename has blocked due to LQ full
system.switch_cpus.rename.SQFullEvents       10052030                       # Number of times rename has blocked due to SQ full
system.switch_cpus.rename.renamedOperands    932655594                       # Number of destination operands rename has renamed
system.switch_cpus.rename.lookups          1668275469                       # Number of register rename lookups that rename has made
system.switch_cpus.rename.intLookups       1130689574                       # Number of integer rename lookups
system.switch_cpus.rename.fpLookups           6601286                       # Number of floating rename lookups
system.switch_cpus.rename.committedMaps     534433689                       # Number of HB maps that are committed
system.switch_cpus.rename.undoneMaps        398221797                       # Number of HB maps that are undone due to squashing
system.switch_cpus.rename.serializing               0                       # count of serializing insts renamed
system.switch_cpus.rename.tempSerializing            0                       # count of temporary serializing insts renamed
system.switch_cpus.rename.skidInsts         123988732                       # count of insts added to the skid buffer
system.switch_cpus.rob.reads                778991054                       # The number of ROB reads
system.switch_cpus.rob.writes              1265550359                       # The number of ROB writes
system.switch_cpus.thread0.numInsts         250000001                       # Number of Instructions committed
system.switch_cpus.thread0.numOps           362744499                       # Number of Ops committed
system.switch_cpus.thread0.numMemRefs               0                       # Number of Memory References
system.voltage_domain.voltage                       1                       # Voltage in Volts

---------- End Simulation Statistics   ----------
