Command line:
./runscript_pride.sh blender RFM1.BR1.4C 4 2017 --rh_defense --rh_mitigation=RFM --rh_rfm_per_trefi=1 --rh_rfm_blast_radius=1 --rh_rfm_maxacts_per_trefi=79
Global frequency set at 1000000000000 ticks per second
RFM details - rfm_act_threshold: 79, blast_radius: 1, delay_per_rfm: 175000 ps. sample_rate: 0.012500
RH Defense config: RFM, Bus Delay: 0, rfms_per_trefi: 1, rfm_act_threshold: 79, blast_radius: 1,rfm_delay_per_act: 45000 ps.
DRAM config: RowsPerBank: 65536, BanksPerRank: 32, RanksPerChannel: 1
warn: Sockets disabled, not accepting gdb connections
warn: CoherentXBar system.cpu0.mmucache.mmubus has no snooping ports attached!
warn: CoherentXBar system.cpu1.mmucache.mmubus has no snooping ports attached!
warn: CoherentXBar system.cpu2.mmucache.mmubus has no snooping ports attached!
warn: CoherentXBar system.cpu3.mmucache.mmubus has no snooping ports attached!
warn: Checkpoints for file descriptors currently do not work.
warn: Checkpoints for file descriptors currently do not work.
warn: Checkpoints for file descriptors currently do not work.
warn: Checkpoints for file descriptors currently do not work.
gem5 Simulator System.  http://gem5.org
gem5 is copyrighted software; use the --copyright option for details.

gem5 version 20.1.0.5
gem5 compiled Jul 12 2024 12:42:38
gem5 started Jul 31 2024 15:37:59
gem5 executing on a07dda8b130c, pid 238710
command line: /home/user/PrIDE/performance/gem5/build/X86/gem5.opt --outdir=/home/user/PrIDE/performance/gem5/stats/pride_multiprogram_16GBmem_250Mn.SPEC2017.C4/RFM1.BR1.4C/blender /home/user/PrIDE/performance/gem5/configs/example/se_rq_spec_config_multicore.py --redirects /lib64=/home/utils/gcc-6.2.0/lib64 --benchmark=blender --benchmark_stdout=/home/user/PrIDE/performance/gem5/stats/pride_multiprogram_16GBmem_250Mn.SPEC2017.C4/RFM1.BR1.4C/blender/blender.out --benchmark_stderr=/home/user/PrIDE/performance/gem5/stats/pride_multiprogram_16GBmem_250Mn.SPEC2017.C4/RFM1.BR1.4C/blender/blender.err --spec-version=2017 --rh_defense --rh_mitigation=RFM --rh_rfm_per_trefi=1 --rh_rfm_blast_radius=1 --rh_rfm_maxacts_per_trefi=79 --num-cpus=4 --mem-size=16GB --mem-type=DDR5_2400_32x4 --mem-ranks=1 --mem-channels=1 --checkpoint-dir=/home/user/PrIDE/performance/gem5/cpts-DDR5/multiprogram_16GBmem_25Bn.SPEC2017.C4/blender-1-ref-x86 --checkpoint-restore=25000000000 --at-instruction --cpu-type DerivO3CPU --caches --l2cache --l1d_size=32kB --l1i_size=32kB --l2_size=256kB --l3_size=4MB --l1d_assoc=8 --l1i_assoc=8 --l2_assoc=16 --l3_assoc=16 --cpu-clock=3GHz --sys-clock=3GHz --maxinsts=250000000 --prog-interval=300Hz

info: Standard input is not a terminal, disabling listeners.
Benchmark- 0   blender
Selected benchmark
--> blender
CMD: ['/opt/spec2017/benchspec/CPU/526.blender_r/run/run_base_refrate_gem5_se-m64.0000/blender_r_base.gem5_se-m64', '/opt/spec2017/benchspec/CPU/526.blender_r/run/run_base_refrate_gem5_se-m64.0000/sh3_no_char.blend', '--render-output', 'sh3_no_char_', '--threads', '1', '-b', '-F', 'RAWTGA', '-s', '849', '-e', '849', '-a']
CWD: /opt/spec2017/benchspec/CPU/526.blender_r/run/run_base_refrate_gem5_se-m64.0000/
Process stdout file: /home/user/PrIDE/performance/gem5/stats/pride_multiprogram_16GBmem_250Mn.SPEC2017.C4/RFM1.BR1.4C/blender/blender.out_0
Process stderr file: /home/user/PrIDE/performance/gem5/stats/pride_multiprogram_16GBmem_250Mn.SPEC2017.C4/RFM1.BR1.4C/blender/blender.err_0
Benchmark- 1   blender
Selected benchmark
--> blender
CMD: ['/opt/spec2017/benchspec/CPU/526.blender_r/run/run_base_refrate_gem5_se-m64.0000/blender_r_base.gem5_se-m64', '/opt/spec2017/benchspec/CPU/526.blender_r/run/run_base_refrate_gem5_se-m64.0000/sh3_no_char.blend', '--render-output', 'sh3_no_char_', '--threads', '1', '-b', '-F', 'RAWTGA', '-s', '849', '-e', '849', '-a']
CWD: /opt/spec2017/benchspec/CPU/526.blender_r/run/run_base_refrate_gem5_se-m64.0000/
Process stdout file: /home/user/PrIDE/performance/gem5/stats/pride_multiprogram_16GBmem_250Mn.SPEC2017.C4/RFM1.BR1.4C/blender/blender.out_1
Process stderr file: /home/user/PrIDE/performance/gem5/stats/pride_multiprogram_16GBmem_250Mn.SPEC2017.C4/RFM1.BR1.4C/blender/blender.err_1
Benchmark- 2   blender
Selected benchmark
--> blender
CMD: ['/opt/spec2017/benchspec/CPU/526.blender_r/run/run_base_refrate_gem5_se-m64.0000/blender_r_base.gem5_se-m64', '/opt/spec2017/benchspec/CPU/526.blender_r/run/run_base_refrate_gem5_se-m64.0000/sh3_no_char.blend', '--render-output', 'sh3_no_char_', '--threads', '1', '-b', '-F', 'RAWTGA', '-s', '849', '-e', '849', '-a']
CWD: /opt/spec2017/benchspec/CPU/526.blender_r/run/run_base_refrate_gem5_se-m64.0000/
Process stdout file: /home/user/PrIDE/performance/gem5/stats/pride_multiprogram_16GBmem_250Mn.SPEC2017.C4/RFM1.BR1.4C/blender/blender.out_2
Process stderr file: /home/user/PrIDE/performance/gem5/stats/pride_multiprogram_16GBmem_250Mn.SPEC2017.C4/RFM1.BR1.4C/blender/blender.err_2
Benchmark- 3   blender
Selected benchmark
--> blender
CMD: ['/opt/spec2017/benchspec/CPU/526.blender_r/run/run_base_refrate_gem5_se-m64.0000/blender_r_base.gem5_se-m64', '/opt/spec2017/benchspec/CPU/526.blender_r/run/run_base_refrate_gem5_se-m64.0000/sh3_no_char.blend', '--render-output', 'sh3_no_char_', '--threads', '1', '-b', '-F', 'RAWTGA', '-s', '849', '-e', '849', '-a']
CWD: /opt/spec2017/benchspec/CPU/526.blender_r/run/run_base_refrate_gem5_se-m64.0000/
Process stdout file: /home/user/PrIDE/performance/gem5/stats/pride_multiprogram_16GBmem_250Mn.SPEC2017.C4/RFM1.BR1.4C/blender/blender.out_3
Process stderr file: /home/user/PrIDE/performance/gem5/stats/pride_multiprogram_16GBmem_250Mn.SPEC2017.C4/RFM1.BR1.4C/blender/blender.err_3
Workload-0: 
['/opt/spec2017/benchspec/CPU/526.blender_r/run/run_base_refrate_gem5_se-m64.0000/blender_r_base.gem5_se-m64', '/opt/spec2017/benchspec/CPU/526.blender_r/run/run_base_refrate_gem5_se-m64.0000/sh3_no_char.blend', '--render-output', 'sh3_no_char_', '--threads', '1', '-b', '-F', 'RAWTGA', '-s', '849', '-e', '849', '-a']
Workload-1: 
['/opt/spec2017/benchspec/CPU/526.blender_r/run/run_base_refrate_gem5_se-m64.0000/blender_r_base.gem5_se-m64', '/opt/spec2017/benchspec/CPU/526.blender_r/run/run_base_refrate_gem5_se-m64.0000/sh3_no_char.blend', '--render-output', 'sh3_no_char_', '--threads', '1', '-b', '-F', 'RAWTGA', '-s', '849', '-e', '849', '-a']
Workload-2: 
['/opt/spec2017/benchspec/CPU/526.blender_r/run/run_base_refrate_gem5_se-m64.0000/blender_r_base.gem5_se-m64', '/opt/spec2017/benchspec/CPU/526.blender_r/run/run_base_refrate_gem5_se-m64.0000/sh3_no_char.blend', '--render-output', 'sh3_no_char_', '--threads', '1', '-b', '-F', 'RAWTGA', '-s', '849', '-e', '849', '-a']
Workload-3: 
['/opt/spec2017/benchspec/CPU/526.blender_r/run/run_base_refrate_gem5_se-m64.0000/blender_r_base.gem5_se-m64', '/opt/spec2017/benchspec/CPU/526.blender_r/run/run_base_refrate_gem5_se-m64.0000/sh3_no_char.blend', '--render-output', 'sh3_no_char_', '--threads', '1', '-b', '-F', 'RAWTGA', '-s', '849', '-e', '849', '-a']
defense_enable:  True  detector:  MG  mitigation:  RFM  threshold:  800
mg_entries:  1700
rfm_maxacts_per_trefi:  79 rfm_per_trefi:  1 rfm_blast_radius:  1
Switch at curTick count:10000
warn: membus.master is deprecated. `master` is now called `mem_side_ports`
warn: No dot file generated. Please install pydot to generate the dot file and pdf.
info: Entering event queue @ 18219162241026.  Starting simulation...
info: Entering event queue @ 18219162251026.  Starting simulation...
warn: PowerState: Already in the requested power state, request ignored
Switched CPUS @ tick 18219162251026
switching cpus
**** REAL SIMULATION ****
info: Entering event queue @ 18219162251682.  Starting simulation...
18222495574359: Event_285: system.switch_cpus3 progress event, total committed:5561264, progress insts committed: 5561264, IPC: 00.55557
18222495574359: Event_284: system.switch_cpus2 progress event, total committed:5561264, progress insts committed: 5561264, IPC: 00.55557
18222495574359: Event_283: system.switch_cpus1 progress event, total committed:5561472, progress insts committed: 5561472, IPC: 0.555591
18222495574359: Event_282: system.switch_cpus0 progress event, total committed:5561247, progress insts committed: 5561247, IPC: 0.555569
18225828907692: Event_282: system.switch_cpus0 progress event, total committed:11107984, progress insts committed: 5546737, IPC: 0.554119
18225828907692: Event_283: system.switch_cpus1 progress event, total committed:11108058, progress insts committed: 5546586, IPC: 0.554104
18225828907692: Event_284: system.switch_cpus2 progress event, total committed:11108000, progress insts committed: 5546736, IPC: 0.554119
18225828907692: Event_285: system.switch_cpus3 progress event, total committed:11108208, progress insts committed: 5546944, IPC: 00.55414
18229162241025: Event_285: system.switch_cpus3 progress event, total committed:16423367, progress insts committed: 5315159, IPC: 0.530984
18229162241025: Event_284: system.switch_cpus2 progress event, total committed:16404232, progress insts committed: 5296232, IPC: 0.529094
18229162241025: Event_283: system.switch_cpus1 progress event, total committed:16423601, progress insts committed: 5315543, IPC: 0.531023
18229162241025: Event_282: system.switch_cpus0 progress event, total committed:16423350, progress insts committed: 5315366, IPC: 0.531005
18232495574358: Event_282: system.switch_cpus0 progress event, total committed:21578838, progress insts committed: 5155488, IPC: 0.515033
18232495574358: Event_283: system.switch_cpus1 progress event, total committed:21578890, progress insts committed: 5155289, IPC: 0.515013
18232495574358: Event_284: system.switch_cpus2 progress event, total committed:21490871, progress insts committed: 5086639, IPC: 0.508155
18232495574358: Event_285: system.switch_cpus3 progress event, total committed:21579037, progress insts committed: 5155670, IPC: 0.515051
18235828907691: Event_285: system.switch_cpus3 progress event, total committed:26802320, progress insts committed: 5223283, IPC: 0.521806
18235828907691: Event_284: system.switch_cpus2 progress event, total committed:26647412, progress insts committed: 5156541, IPC: 0.515138
18235828907691: Event_283: system.switch_cpus1 progress event, total committed:26798402, progress insts committed: 5219512, IPC: 0.521429
18235828907691: Event_282: system.switch_cpus0 progress event, total committed:26801778, progress insts committed: 5222940, IPC: 0.521772
18239162241024: Event_282: system.switch_cpus0 progress event, total committed:32041031, progress insts committed: 5239253, IPC: 0.523401
18239162241024: Event_283: system.switch_cpus1 progress event, total committed:32020814, progress insts committed: 5222412, IPC: 0.521719
18239162241024: Event_284: system.switch_cpus2 progress event, total committed:31827647, progress insts committed: 5180235, IPC: 0.517505
18239162241024: Event_285: system.switch_cpus3 progress event, total committed:32042459, progress insts committed: 5240139, IPC: 00.52349
18242495574357: Event_285: system.switch_cpus3 progress event, total committed:37386771, progress insts committed: 5344312, IPC: 0.533897
18242495574357: Event_284: system.switch_cpus2 progress event, total committed:37128098, progress insts committed: 5300451, IPC: 0.529515
18242495574357: Event_283: system.switch_cpus1 progress event, total committed:37360928, progress insts committed: 5340114, IPC: 0.533477
18242495574357: Event_282: system.switch_cpus0 progress event, total committed:37366644, progress insts committed: 5325613, IPC: 0.532029
18245828907690: Event_282: system.switch_cpus0 progress event, total committed:41889218, progress insts committed: 4522574, IPC: 0.451805
18245828907690: Event_283: system.switch_cpus1 progress event, total committed:41890665, progress insts committed: 4529737, IPC: 0.452521
18245828907690: Event_284: system.switch_cpus2 progress event, total committed:41692771, progress insts committed: 4564673, IPC: 0.456011
18245828907690: Event_285: system.switch_cpus3 progress event, total committed:41896821, progress insts committed: 4510050, IPC: 0.450554
18249162241023: Event_285: system.switch_cpus3 progress event, total committed:44380676, progress insts committed: 2483855, IPC: 0.248137
18249162241023: Event_284: system.switch_cpus2 progress event, total committed:44161065, progress insts committed: 2468294, IPC: 0.246583
18249162241023: Event_283: system.switch_cpus1 progress event, total committed:44363575, progress insts committed: 2472910, IPC: 0.247044
18249162241023: Event_282: system.switch_cpus0 progress event, total committed:44370983, progress insts committed: 2481765, IPC: 0.247928
18252495574356: Event_282: system.switch_cpus0 progress event, total committed:46789938, progress insts committed: 2418955, IPC: 0.241654
18252495574356: Event_283: system.switch_cpus1 progress event, total committed:46819160, progress insts committed: 2455585, IPC: 0.245313
18252495574356: Event_284: system.switch_cpus2 progress event, total committed:46611009, progress insts committed: 2449944, IPC: 0.244749
18252495574356: Event_285: system.switch_cpus3 progress event, total committed:46852211, progress insts committed: 2471535, IPC: 0.246906
18255828907689: Event_285: system.switch_cpus3 progress event, total committed:49335795, progress insts committed: 2483584, IPC: 00.24811
18255828907689: Event_284: system.switch_cpus2 progress event, total committed:49085380, progress insts committed: 2474371, IPC: 00.24719
18255828907689: Event_283: system.switch_cpus1 progress event, total committed:49269795, progress insts committed: 2450635, IPC: 0.244818
18255828907689: Event_282: system.switch_cpus0 progress event, total committed:49262133, progress insts committed: 2472195, IPC: 0.246972
18259162241022: Event_282: system.switch_cpus0 progress event, total committed:51705123, progress insts committed: 2442990, IPC: 0.244055
18259162241022: Event_283: system.switch_cpus1 progress event, total committed:51740340, progress insts committed: 2470545, IPC: 0.246807
18259162241022: Event_284: system.switch_cpus2 progress event, total committed:51498183, progress insts committed: 2412803, IPC: 0.241039
18259162241022: Event_285: system.switch_cpus3 progress event, total committed:51786426, progress insts committed: 2450631, IPC: 0.244818
18262495574355: Event_285: system.switch_cpus3 progress event, total committed:54162866, progress insts committed: 2376440, IPC: 0.237406
18262495574355: Event_284: system.switch_cpus2 progress event, total committed:53936600, progress insts committed: 2438417, IPC: 0.243598
18262495574355: Event_283: system.switch_cpus1 progress event, total committed:54171611, progress insts committed: 2431271, IPC: 0.242884
18262495574355: Event_282: system.switch_cpus0 progress event, total committed:54092948, progress insts committed: 2387825, IPC: 0.238544
18265828907688: Event_282: system.switch_cpus0 progress event, total committed:56511683, progress insts committed: 2418735, IPC: 0.241632
18265828907688: Event_283: system.switch_cpus1 progress event, total committed:56613171, progress insts committed: 2441560, IPC: 0.243912
18265828907688: Event_284: system.switch_cpus2 progress event, total committed:56361385, progress insts committed: 2424785, IPC: 0.242236
18265828907688: Event_285: system.switch_cpus3 progress event, total committed:56596455, progress insts committed: 2433589, IPC: 0.243116
18269162241021: Event_285: system.switch_cpus3 progress event, total committed:59048905, progress insts committed: 2452450, IPC: 0000.245
18269162241021: Event_284: system.switch_cpus2 progress event, total committed:58802340, progress insts committed: 2440955, IPC: 0.243851
18269162241021: Event_283: system.switch_cpus1 progress event, total committed:59070355, progress insts committed: 2457184, IPC: 0.245473
18269162241021: Event_282: system.switch_cpus0 progress event, total committed:58961218, progress insts committed: 2449535, IPC: 0.244709
18272495574354: Event_282: system.switch_cpus0 progress event, total committed:61275999, progress insts committed: 2314781, IPC: 0.231247
18272495574354: Event_283: system.switch_cpus1 progress event, total committed:61414675, progress insts committed: 2344320, IPC: 0.234198
18272495574354: Event_284: system.switch_cpus2 progress event, total committed:61156666, progress insts committed: 2354326, IPC: 0.235197
18272495574354: Event_285: system.switch_cpus3 progress event, total committed:61410165, progress insts committed: 2361260, IPC: 00.23589
18275828907687: Event_285: system.switch_cpus3 progress event, total committed:63789685, progress insts committed: 2379520, IPC: 0.237714
18275828907687: Event_284: system.switch_cpus2 progress event, total committed:63512870, progress insts committed: 2356204, IPC: 0.235385
18275828907687: Event_283: system.switch_cpus1 progress event, total committed:63807171, progress insts committed: 2392496, IPC: 00.23901
18275828907687: Event_282: system.switch_cpus0 progress event, total committed:63641219, progress insts committed: 2365220, IPC: 0.236285
18279162241020: Event_282: system.switch_cpus0 progress event, total committed:66023768, progress insts committed: 2382549, IPC: 0.238017
18279162241020: Event_283: system.switch_cpus1 progress event, total committed:66189225, progress insts committed: 2382054, IPC: 0.237967
18279162241020: Event_284: system.switch_cpus2 progress event, total committed:65877540, progress insts committed: 2364670, IPC: 0.236231
18279162241020: Event_285: system.switch_cpus3 progress event, total committed:66172120, progress insts committed: 2382435, IPC: 0.238005
18282495574353: Event_285: system.switch_cpus3 progress event, total committed:68588211, progress insts committed: 2416091, IPC: 0.241367
18282495574353: Event_284: system.switch_cpus2 progress event, total committed:68291156, progress insts committed: 2413616, IPC: 00.24112
18282495574353: Event_283: system.switch_cpus1 progress event, total committed:68597620, progress insts committed: 2408395, IPC: 0.240599
18282495574353: Event_282: system.switch_cpus0 progress event, total committed:68437938, progress insts committed: 2414170, IPC: 0.241176
18285828907686: Event_282: system.switch_cpus0 progress event, total committed:70892148, progress insts committed: 2454210, IPC: 0.245176
18285828907686: Event_283: system.switch_cpus1 progress event, total committed:71049685, progress insts committed: 2452065, IPC: 0.244961
18285828907686: Event_284: system.switch_cpus2 progress event, total committed:70738275, progress insts committed: 2447119, IPC: 0.244467
18285828907686: Event_285: system.switch_cpus3 progress event, total committed:71047807, progress insts committed: 2459596, IPC: 0.245714
18289162241019: Event_285: system.switch_cpus3 progress event, total committed:73459887, progress insts committed: 2412080, IPC: 0.240967
18289162241019: Event_284: system.switch_cpus2 progress event, total committed:73140675, progress insts committed: 2402400, IPC: 00000.24
18289162241019: Event_283: system.switch_cpus1 progress event, total committed:73471060, progress insts committed: 2421375, IPC: 0.241895
18289162241019: Event_282: system.switch_cpus0 progress event, total committed:73296400, progress insts committed: 2404252, IPC: 0.240185
18292495574352: Event_282: system.switch_cpus0 progress event, total committed:75682000, progress insts committed: 2385600, IPC: 0.238321
18292495574352: Event_283: system.switch_cpus1 progress event, total committed:75884786, progress insts committed: 2413726, IPC: 0.241131
18292495574352: Event_284: system.switch_cpus2 progress event, total committed:75541975, progress insts committed: 2401300, IPC: 00.23989
18292495574352: Event_285: system.switch_cpus3 progress event, total committed:75878245, progress insts committed: 2418358, IPC: 0.241594
18295828907685: Event_285: system.switch_cpus3 progress event, total committed:78268325, progress insts committed: 2390080, IPC: 0.238769
18295828907685: Event_284: system.switch_cpus2 progress event, total committed:77988375, progress insts committed: 2446400, IPC: 0.244395
18295828907685: Event_283: system.switch_cpus1 progress event, total committed:78328879, progress insts committed: 2444093, IPC: 0.244165
18295828907685: Event_282: system.switch_cpus0 progress event, total committed:78145383, progress insts committed: 2463383, IPC: 0.246092
18299162241018: Event_282: system.switch_cpus0 progress event, total committed:83534992, progress insts committed: 5389609, IPC: 0.538422
18299162241018: Event_283: system.switch_cpus1 progress event, total committed:83838305, progress insts committed: 5509426, IPC: 0.550392
18299162241018: Event_284: system.switch_cpus2 progress event, total committed:83269653, progress insts committed: 5281278, IPC: 000.5276
18299162241018: Event_285: system.switch_cpus3 progress event, total committed:83778369, progress insts committed: 5510044, IPC: 0.550453
18302495574351: Event_285: system.switch_cpus3 progress event, total committed:89273287, progress insts committed: 5494918, IPC: 0.548942
18302495574351: Event_284: system.switch_cpus2 progress event, total committed:88728554, progress insts committed: 5458901, IPC: 0.545344
18302495574351: Event_283: system.switch_cpus1 progress event, total committed:89368629, progress insts committed: 5530324, IPC: 0.552479
18302495574351: Event_282: system.switch_cpus0 progress event, total committed:88990468, progress insts committed: 5455476, IPC: 0.545002
18305828907684: Event_282: system.switch_cpus0 progress event, total committed:94437294, progress insts committed: 5446826, IPC: 0.544138
18305828907684: Event_283: system.switch_cpus1 progress event, total committed:94874883, progress insts committed: 5506254, IPC: 0.550075
18305828907684: Event_284: system.switch_cpus2 progress event, total committed:94178273, progress insts committed: 5449719, IPC: 0.544427
18305828907684: Event_285: system.switch_cpus3 progress event, total committed:94744428, progress insts committed: 5471141, IPC: 0.546567
18309162241017: Event_285: system.switch_cpus3 progress event, total committed:100353973, progress insts committed: 5609545, IPC: 0.560394
18309162241017: Event_284: system.switch_cpus2 progress event, total committed:99785393, progress insts committed: 5607120, IPC: 0.560151
18309162241017: Event_283: system.switch_cpus1 progress event, total committed:100463334, progress insts committed: 5588451, IPC: 0.558286
18309162241017: Event_282: system.switch_cpus0 progress event, total committed:100035805, progress insts committed: 5598511, IPC: 0.559291
18312495574350: Event_282: system.switch_cpus0 progress event, total committed:105451748, progress insts committed: 5415943, IPC: 0.541053
18312495574350: Event_283: system.switch_cpus1 progress event, total committed:105938883, progress insts committed: 5475549, IPC: 0.547007
18312495574350: Event_284: system.switch_cpus2 progress event, total committed:105185706, progress insts committed: 5400313, IPC: 0.539491
18312495574350: Event_285: system.switch_cpus3 progress event, total committed:105817124, progress insts committed: 5463151, IPC: 0.545769
18315828907683: Event_285: system.switch_cpus3 progress event, total committed:111250327, progress insts committed: 5433203, IPC: 0.542777
18315828907683: Event_284: system.switch_cpus2 progress event, total committed:110616481, progress insts committed: 5430775, IPC: 0.542534
18315828907683: Event_283: system.switch_cpus1 progress event, total committed:111370897, progress insts committed: 5432014, IPC: 0.542658
18315828907683: Event_282: system.switch_cpus0 progress event, total committed:110867841, progress insts committed: 5416093, IPC: 0.541068
18319162241016: Event_282: system.switch_cpus0 progress event, total committed:116271542, progress insts committed: 5403701, IPC: 00.53983
18319162241016: Event_283: system.switch_cpus1 progress event, total committed:116822532, progress insts committed: 5451635, IPC: 0.544618
18319162241016: Event_284: system.switch_cpus2 progress event, total committed:116021236, progress insts committed: 5404755, IPC: 0.539935
18319162241016: Event_285: system.switch_cpus3 progress event, total committed:116706799, progress insts committed: 5456472, IPC: 0.545102
18322495574349: Event_285: system.switch_cpus3 progress event, total committed:120356333, progress insts committed: 3649534, IPC: 0.364588
18322495574349: Event_284: system.switch_cpus2 progress event, total committed:120329276, progress insts committed: 4308040, IPC: 0.430373
18322495574349: Event_283: system.switch_cpus1 progress event, total committed:120359052, progress insts committed: 3536520, IPC: 0.353298
18322495574349: Event_282: system.switch_cpus0 progress event, total committed:120338773, progress insts committed: 4067231, IPC: 0.406316
18325828907682: Event_282: system.switch_cpus0 progress event, total committed:120500025, progress insts committed: 161252, IPC: 0.0161091
18325828907682: Event_283: system.switch_cpus1 progress event, total committed:120521897, progress insts committed: 162845, IPC: 0.0162682
18325828907682: Event_284: system.switch_cpus2 progress event, total committed:120490359, progress insts committed: 161083, IPC: 0.0160922
18325828907682: Event_285: system.switch_cpus3 progress event, total committed:120518756, progress insts committed: 162423, IPC: 0.0162261
18329162241015: Event_285: system.switch_cpus3 progress event, total committed:120669494, progress insts committed: 150738, IPC: 0.0150587
18329162241015: Event_284: system.switch_cpus2 progress event, total committed:120641136, progress insts committed: 150777, IPC: 0.0150626
18329162241015: Event_283: system.switch_cpus1 progress event, total committed:120672371, progress insts committed: 150474, IPC: 0.0150324
18329162241015: Event_282: system.switch_cpus0 progress event, total committed:120650271, progress insts committed: 150246, IPC: 0.0150096
18332495574348: Event_282: system.switch_cpus0 progress event, total committed:120800133, progress insts committed: 149862, IPC: 0.0149712
18332495574348: Event_283: system.switch_cpus1 progress event, total committed:120825239, progress insts committed: 152868, IPC: 0.0152715
18332495574348: Event_284: system.switch_cpus2 progress event, total committed:120792002, progress insts committed: 150866, IPC: 0.0150715
18332495574348: Event_285: system.switch_cpus3 progress event, total committed:120822038, progress insts committed: 152544, IPC: 0.0152391
18335828907681: Event_285: system.switch_cpus3 progress event, total committed:120974667, progress insts committed: 152629, IPC: 0.0152476
18335828907681: Event_284: system.switch_cpus2 progress event, total committed:120942116, progress insts committed: 150114, IPC: 0.0149964
18335828907681: Event_283: system.switch_cpus1 progress event, total committed:120978245, progress insts committed: 153006, IPC: 0.0152853
18335828907681: Event_282: system.switch_cpus0 progress event, total committed:120951636, progress insts committed: 151503, IPC: 0.0151351
18339162241014: Event_282: system.switch_cpus0 progress event, total committed:121102080, progress insts committed: 150444, IPC: 0.0150294
18339162241014: Event_283: system.switch_cpus1 progress event, total committed:121128905, progress insts committed: 150660, IPC: 0.0150509
18339162241014: Event_284: system.switch_cpus2 progress event, total committed:121093283, progress insts committed: 151167, IPC: 0.0151016
18339162241014: Event_285: system.switch_cpus3 progress event, total committed:121125005, progress insts committed: 150338, IPC: 0.0150188
18342495574347: Event_285: system.switch_cpus3 progress event, total committed:121276577, progress insts committed: 151572, IPC: 0.015142
18342495574347: Event_284: system.switch_cpus2 progress event, total committed:121240400, progress insts committed: 147117, IPC: 0.014697
18342495574347: Event_283: system.switch_cpus1 progress event, total committed:121279085, progress insts committed: 150180, IPC: 0.015003
18342495574347: Event_282: system.switch_cpus0 progress event, total committed:121247868, progress insts committed: 145788, IPC: 0.0145642
18345828907680: Event_282: system.switch_cpus0 progress event, total committed:121404100, progress insts committed: 156232, IPC: 0.0156076
18345828907680: Event_283: system.switch_cpus1 progress event, total committed:121438332, progress insts committed: 159247, IPC: 0.0159088
18345828907680: Event_284: system.switch_cpus2 progress event, total committed:121392777, progress insts committed: 152377, IPC: 0.0152225
18345828907680: Event_285: system.switch_cpus3 progress event, total committed:121435233, progress insts committed: 158656, IPC: 0.0158497
18349162241013: Event_285: system.switch_cpus3 progress event, total committed:121598751, progress insts committed: 163518, IPC: 0.0163354
18349162241013: Event_284: system.switch_cpus2 progress event, total committed:121554825, progress insts committed: 162048, IPC: 0.0161886
18349162241013: Event_283: system.switch_cpus1 progress event, total committed:121602708, progress insts committed: 164376, IPC: 0.0164212
18349162241013: Event_282: system.switch_cpus0 progress event, total committed:121562686, progress insts committed: 158586, IPC: 0.0158427
18352495574346: Event_282: system.switch_cpus0 progress event, total committed:121723537, progress insts committed: 160851, IPC: 0.016069
18352495574346: Event_283: system.switch_cpus1 progress event, total committed:121767090, progress insts committed: 164382, IPC: 0.0164218
18352495574346: Event_284: system.switch_cpus2 progress event, total committed:121713297, progress insts committed: 158472, IPC: 0.0158314
18352495574346: Event_285: system.switch_cpus3 progress event, total committed:121763994, progress insts committed: 165243, IPC: 0.0165078
18355828907679: Event_285: system.switch_cpus3 progress event, total committed:121926060, progress insts committed: 162066, IPC: 0.0161904
18355828907679: Event_284: system.switch_cpus2 progress event, total committed:121873722, progress insts committed: 160425, IPC: 0.0160265
18355828907679: Event_283: system.switch_cpus1 progress event, total committed:121929807, progress insts committed: 162717, IPC: 0.0162554
18355828907679: Event_282: system.switch_cpus0 progress event, total committed:121882684, progress insts committed: 159147, IPC: 0.0158988
18359162241012: Event_282: system.switch_cpus0 progress event, total committed:122046775, progress insts committed: 164091, IPC: 0.0163927
18359162241012: Event_283: system.switch_cpus1 progress event, total committed:122092851, progress insts committed: 163044, IPC: 0.0162881
18359162241012: Event_284: system.switch_cpus2 progress event, total committed:122036574, progress insts committed: 162852, IPC: 0.0162689
18359162241012: Event_285: system.switch_cpus3 progress event, total committed:122088951, progress insts committed: 162891, IPC: 0.0162728
18362495574345: Event_285: system.switch_cpus3 progress event, total committed:122252142, progress insts committed: 163191, IPC: 0.0163028
18362495574345: Event_284: system.switch_cpus2 progress event, total committed:122196873, progress insts committed: 160299, IPC: 0.0160139
18362495574345: Event_283: system.switch_cpus1 progress event, total committed:122255664, progress insts committed: 162813, IPC: 0.016265
18362495574345: Event_282: system.switch_cpus0 progress event, total committed:122206771, progress insts committed: 159996, IPC: 0.0159836
18365828907678: Event_282: system.switch_cpus0 progress event, total committed:122366599, progress insts committed: 159828, IPC: 0.0159668
18365828907678: Event_283: system.switch_cpus1 progress event, total committed:122419833, progress insts committed: 164169, IPC: 0.0164005
18365828907678: Event_284: system.switch_cpus2 progress event, total committed:122356518, progress insts committed: 159645, IPC: 0.0159485
18365828907678: Event_285: system.switch_cpus3 progress event, total committed:122415861, progress insts committed: 163719, IPC: 0.0163555
18369162241011: Event_285: system.switch_cpus3 progress event, total committed:122578875, progress insts committed: 163014, IPC: 0.0162851
18369162241011: Event_284: system.switch_cpus2 progress event, total committed:122516886, progress insts committed: 160368, IPC: 0.0160208
18369162241011: Event_283: system.switch_cpus1 progress event, total committed:122582541, progress insts committed: 162708, IPC: 0.0162545
18369162241011: Event_282: system.switch_cpus0 progress event, total committed:122527786, progress insts committed: 161187, IPC: 0.0161026
18372495574344: Event_282: system.switch_cpus0 progress event, total committed:122690104, progress insts committed: 162318, IPC: 0.0162156
18372495574344: Event_283: system.switch_cpus1 progress event, total committed:122749020, progress insts committed: 166479, IPC: 0.0166313
18372495574344: Event_284: system.switch_cpus2 progress event, total committed:122680725, progress insts committed: 163839, IPC: 0.0163675
18372495574344: Event_285: system.switch_cpus3 progress event, total committed:122745060, progress insts committed: 166185, IPC: 0.0166019
18375828907677: Event_285: system.switch_cpus3 progress event, total committed:122910048, progress insts committed: 164988, IPC: 0.0164823
18375828907677: Event_284: system.switch_cpus2 progress event, total committed:122843292, progress insts committed: 162567, IPC: 0.0162404
18375828907677: Event_283: system.switch_cpus1 progress event, total committed:122913651, progress insts committed: 164631, IPC: 0.0164466
18375828907677: Event_282: system.switch_cpus0 progress event, total committed:122852641, progress insts committed: 162537, IPC: 0.0162374
18379162241010: Event_282: system.switch_cpus0 progress event, total committed:123015499, progress insts committed: 162858, IPC: 0.0162695
18379162241010: Event_283: system.switch_cpus1 progress event, total committed:123079686, progress insts committed: 166035, IPC: 0.0165869
18379162241010: Event_284: system.switch_cpus2 progress event, total committed:123006480, progress insts committed: 163188, IPC: 0.0163025
18379162241010: Event_285: system.switch_cpus3 progress event, total committed:123075177, progress insts committed: 165129, IPC: 0.0164964
18382495574343: Event_285: system.switch_cpus3 progress event, total committed:123240405, progress insts committed: 165228, IPC: 0.0165063
18382495574343: Event_284: system.switch_cpus2 progress event, total committed:123168735, progress insts committed: 162255, IPC: 0.0162093
18382495574343: Event_283: system.switch_cpus1 progress event, total committed:123244224, progress insts committed: 164538, IPC: 0.0164373
18382495574343: Event_282: system.switch_cpus0 progress event, total committed:123179425, progress insts committed: 163926, IPC: 0.0163762
18385828907676: Event_282: system.switch_cpus0 progress event, total committed:123305408, progress insts committed: 125983, IPC: 0.0125857
18385828907676: Event_283: system.switch_cpus1 progress event, total committed:124369937, progress insts committed: 1125713, IPC: 0.112459
18385828907676: Event_284: system.switch_cpus2 progress event, total committed:123295032, progress insts committed: 126297, IPC: 0.0126171
18385828907676: Event_285: system.switch_cpus3 progress event, total committed:124299122, progress insts committed: 1058717, IPC: 0.105766
18389162241009: Event_285: system.switch_cpus3 progress event, total committed:125600702, progress insts committed: 1301580, IPC: 0.130028
18389162241009: Event_284: system.switch_cpus2 progress event, total committed:124397972, progress insts committed: 1102940, IPC: 0.110184
18389162241009: Event_283: system.switch_cpus1 progress event, total committed:125666942, progress insts committed: 1297005, IPC: 0.129571
18389162241009: Event_282: system.switch_cpus0 progress event, total committed:124559444, progress insts committed: 1254036, IPC: 0.125278
18392495574342: Event_282: system.switch_cpus0 progress event, total committed:125934660, progress insts committed: 1375216, IPC: 0.137384
18392495574342: Event_283: system.switch_cpus1 progress event, total committed:127050692, progress insts committed: 1383750, IPC: 0.138237
18392495574342: Event_284: system.switch_cpus2 progress event, total committed:125779382, progress insts committed: 1381410, IPC: 0.138003
18392495574342: Event_285: system.switch_cpus3 progress event, total committed:126981302, progress insts committed: 1380600, IPC: 0.137922
18395828907675: Event_285: system.switch_cpus3 progress event, total committed:128395517, progress insts committed: 1414215, IPC: 00.14128
18395828907675: Event_284: system.switch_cpus2 progress event, total committed:127177261, progress insts committed: 1397879, IPC: 0.139648
18395828907675: Event_283: system.switch_cpus1 progress event, total committed:128465702, progress insts committed: 1415010, IPC: 0.141359
18395828907675: Event_282: system.switch_cpus0 progress event, total committed:127339725, progress insts committed: 1405065, IPC: 0.140366
18399162241008: Event_282: system.switch_cpus0 progress event, total committed:128748645, progress insts committed: 1408920, IPC: 0.140751
18399162241008: Event_283: system.switch_cpus1 progress event, total committed:129873752, progress insts committed: 1408050, IPC: 0.140664
18399162241008: Event_284: system.switch_cpus2 progress event, total committed:128586107, progress insts committed: 1408846, IPC: 0.140744
18399162241008: Event_285: system.switch_cpus3 progress event, total committed:129804542, progress insts committed: 1409025, IPC: 0.140762
18402495574341: Event_285: system.switch_cpus3 progress event, total committed:131194022, progress insts committed: 1389480, IPC: 0.138809
18402495574341: Event_284: system.switch_cpus2 progress event, total committed:130007582, progress insts committed: 1421475, IPC: 0.142005
18402495574341: Event_283: system.switch_cpus1 progress event, total committed:131260262, progress insts committed: 1386510, IPC: 0.138512
18402495574341: Event_282: system.switch_cpus0 progress event, total committed:130170285, progress insts committed: 1421640, IPC: 0.142022
18405828907674: Event_282: system.switch_cpus0 progress event, total committed:131560065, progress insts committed: 1389780, IPC: 0.138839
18405828907674: Event_283: system.switch_cpus1 progress event, total committed:132664112, progress insts committed: 1403850, IPC: 0.140245
18405828907674: Event_284: system.switch_cpus2 progress event, total committed:131398937, progress insts committed: 1391355, IPC: 0.138996
18405828907674: Event_285: system.switch_cpus3 progress event, total committed:132596222, progress insts committed: 1402200, IPC: 00.14008
warn: MOVNTDQ: Ignoring non-temporal hint, modeling as cacheable!
18409162241007: Event_285: system.switch_cpus3 progress event, total committed:133801170, progress insts committed: 1204948, IPC: 0.120374
18409162241007: Event_284: system.switch_cpus2 progress event, total committed:133014062, progress insts committed: 1615125, IPC: 0.161351
18409162241007: Event_283: system.switch_cpus1 progress event, total committed:133815954, progress insts committed: 1151842, IPC: 0.115069
18409162241007: Event_282: system.switch_cpus0 progress event, total committed:133175100, progress insts committed: 1615035, IPC: 0.161342
18412495574340: Event_282: system.switch_cpus0 progress event, total committed:134190592, progress insts committed: 1015492, IPC: 0.101448
18412495574340: Event_283: system.switch_cpus1 progress event, total committed:134420616, progress insts committed: 604662, IPC: 0.0604057
18412495574340: Event_284: system.switch_cpus2 progress event, total committed:134158431, progress insts committed: 1144369, IPC: 0.114322
18412495574340: Event_285: system.switch_cpus3 progress event, total committed:134405931, progress insts committed: 604761, IPC: 0.0604156
18415828907673: Event_285: system.switch_cpus3 progress event, total committed:135040683, progress insts committed: 634752, IPC: 0.0634117
18415828907673: Event_284: system.switch_cpus2 progress event, total committed:134793183, progress insts committed: 634752, IPC: 0.0634117
18415828907673: Event_283: system.switch_cpus1 progress event, total committed:135055401, progress insts committed: 634785, IPC: 0.063415
18415828907673: Event_282: system.switch_cpus0 progress event, total committed:134825374, progress insts committed: 634782, IPC: 0.0634147
18419162241006: Event_282: system.switch_cpus0 progress event, total committed:135400498, progress insts committed: 575124, IPC: 0.0574549
18419162241006: Event_283: system.switch_cpus1 progress event, total committed:136000220, progress insts committed: 944819, IPC: 0.0943874
18419162241006: Event_284: system.switch_cpus2 progress event, total committed:135368310, progress insts committed: 575127, IPC: 0.0574552
18419162241006: Event_285: system.switch_cpus3 progress event, total committed:135924776, progress insts committed: 884093, IPC: 0.0883209
18422495574339: Event_285: system.switch_cpus3 progress event, total committed:137529380, progress insts committed: 1604604, IPC: 000.1603
18422495574339: Event_284: system.switch_cpus2 progress event, total committed:136310180, progress insts committed: 941870, IPC: 0.0940928
18422495574339: Event_283: system.switch_cpus1 progress event, total committed:137602490, progress insts committed: 1602270, IPC: 0.160067
18422495574339: Event_282: system.switch_cpus0 progress event, total committed:136461813, progress insts committed: 1061315, IPC: 0.106025
18425828907672: Event_282: system.switch_cpus0 progress event, total committed:137785083, progress insts committed: 1323270, IPC: 0.132195
18425828907672: Event_283: system.switch_cpus1 progress event, total committed:138880340, progress insts committed: 1277850, IPC: 0.127657
18425828907672: Event_284: system.switch_cpus2 progress event, total committed:137641115, progress insts committed: 1330935, IPC: 00.13296
18425828907672: Event_285: system.switch_cpus3 progress event, total committed:138805965, progress insts committed: 1276585, IPC: 0.127531
18429162241005: Event_285: system.switch_cpus3 progress event, total committed:139997915, progress insts committed: 1191950, IPC: 0.119076
18429162241005: Event_284: system.switch_cpus2 progress event, total committed:138849500, progress insts committed: 1208385, IPC: 0.120718
18429162241005: Event_283: system.switch_cpus1 progress event, total committed:140070876, progress insts committed: 1190536, IPC: 0.118935
18429162241005: Event_282: system.switch_cpus0 progress event, total committed:138995883, progress insts committed: 1210800, IPC: 0.120959
18432495574338: Event_282: system.switch_cpus0 progress event, total committed:140227023, progress insts committed: 1231140, IPC: 0.122991
18432495574338: Event_283: system.switch_cpus1 progress event, total committed:141303350, progress insts committed: 1232474, IPC: 0.123124
18432495574338: Event_284: system.switch_cpus2 progress event, total committed:140085500, progress insts committed: 1236000, IPC: 0.123476
18432495574338: Event_285: system.switch_cpus3 progress event, total committed:141227660, progress insts committed: 1229745, IPC: 0.122852
18435828907671: Event_285: system.switch_cpus3 progress event, total committed:142555265, progress insts committed: 1327605, IPC: 0.132628
18435828907671: Event_284: system.switch_cpus2 progress event, total committed:141356330, progress insts committed: 1270830, IPC: 0.126956
18435828907671: Event_283: system.switch_cpus1 progress event, total committed:142634060, progress insts committed: 1330710, IPC: 0.132938
18435828907671: Event_282: system.switch_cpus0 progress event, total committed:141505923, progress insts committed: 1278900, IPC: 0.127762
18439162241004: Event_282: system.switch_cpus0 progress event, total committed:142848018, progress insts committed: 1342095, IPC: 0.134075
18439162241004: Event_283: system.switch_cpus1 progress event, total committed:143977220, progress insts committed: 1343160, IPC: 0.134182
18439162241004: Event_284: system.switch_cpus2 progress event, total committed:142697570, progress insts committed: 1341240, IPC: 00.13399
18439162241004: Event_285: system.switch_cpus3 progress event, total committed:143898740, progress insts committed: 1343475, IPC: 0.134213
18442495574337: Event_285: system.switch_cpus3 progress event, total committed:145262900, progress insts committed: 1364160, IPC: 00.13628
18442495574337: Event_284: system.switch_cpus2 progress event, total committed:144062045, progress insts committed: 1364475, IPC: 0.136311
18442495574337: Event_283: system.switch_cpus1 progress event, total committed:145342475, progress insts committed: 1365255, IPC: 0.136389
18442495574337: Event_282: system.switch_cpus0 progress event, total committed:144211473, progress insts committed: 1363455, IPC: 0.136209
18445828907670: Event_282: system.switch_cpus0 progress event, total committed:145967794, progress insts committed: 1756321, IPC: 0.175456
18445828907670: Event_283: system.switch_cpus1 progress event, total committed:146196567, progress insts committed: 854092, IPC: 0.0853238
18445828907670: Event_284: system.switch_cpus2 progress event, total committed:145938540, progress insts committed: 1876495, IPC: 0.187462
18445828907670: Event_285: system.switch_cpus3 progress event, total committed:146179506, progress insts committed: 916606, IPC: 0.0915689
18449162241003: Event_285: system.switch_cpus3 progress event, total committed:146865741, progress insts committed: 686235, IPC: 0.0685549
18449162241003: Event_284: system.switch_cpus2 progress event, total committed:146624775, progress insts committed: 686235, IPC: 0.0685549
18449162241003: Event_283: system.switch_cpus1 progress event, total committed:146882802, progress insts committed: 686235, IPC: 0.0685549
18449162241003: Event_282: system.switch_cpus0 progress event, total committed:146653996, progress insts committed: 686202, IPC: 0.0685516
18452495574336: Event_282: system.switch_cpus0 progress event, total committed:147327229, progress insts committed: 673233, IPC: 0.067256
18452495574336: Event_283: system.switch_cpus1 progress event, total committed:147556002, progress insts committed: 673200, IPC: 0.0672527
18452495574336: Event_284: system.switch_cpus2 progress event, total committed:147298008, progress insts committed: 673233, IPC: 0.067256
18452495574336: Event_285: system.switch_cpus3 progress event, total committed:147538941, progress insts committed: 673200, IPC: 0.0672527
18455828907669: Event_285: system.switch_cpus3 progress event, total committed:149320837, progress insts committed: 1781896, IPC: 0.178011
18455828907669: Event_284: system.switch_cpus2 progress event, total committed:147969539, progress insts committed: 671531, IPC: 0.0670859
18455828907669: Event_283: system.switch_cpus1 progress event, total committed:149417279, progress insts committed: 1861277, IPC: 0.185942
18455828907669: Event_282: system.switch_cpus0 progress event, total committed:148126322, progress insts committed: 799093, IPC: 0.0798294
18459162241002: Event_282: system.switch_cpus0 progress event, total committed:150167522, progress insts committed: 2041200, IPC: 0.203916
18459162241002: Event_283: system.switch_cpus1 progress event, total committed:151458221, progress insts committed: 2040942, IPC: 00.20389
18459162241002: Event_284: system.switch_cpus2 progress event, total committed:150010723, progress insts committed: 2041184, IPC: 0.203914
18459162241002: Event_285: system.switch_cpus3 progress event, total committed:151362019, progress insts committed: 2041182, IPC: 0.203914
18462495574335: Event_285: system.switch_cpus3 progress event, total committed:153042318, progress insts committed: 1680299, IPC: 0.167862
18462495574335: Event_284: system.switch_cpus2 progress event, total committed:151850899, progress insts committed: 1840176, IPC: 0.183834
18462495574335: Event_283: system.switch_cpus1 progress event, total committed:153125688, progress insts committed: 1667467, IPC: 00.16658
18462495574335: Event_282: system.switch_cpus0 progress event, total committed:152007706, progress insts committed: 1840184, IPC: 0.183834
18465828907668: Event_282: system.switch_cpus0 progress event, total committed:153348271, progress insts committed: 1340565, IPC: 0.133922
18465828907668: Event_283: system.switch_cpus1 progress event, total committed:154459248, progress insts committed: 1333560, IPC: 0.133223
18465828907668: Event_284: system.switch_cpus2 progress event, total committed:153213288, progress insts committed: 1362389, IPC: 0.136103
18465828907668: Event_285: system.switch_cpus3 progress event, total committed:154375763, progress insts committed: 1333445, IPC: 0.133211
18469162241001: Event_285: system.switch_cpus3 progress event, total committed:155723208, progress insts committed: 1347445, IPC: 00.13461
18469162241001: Event_284: system.switch_cpus2 progress event, total committed:154560540, progress insts committed: 1347252, IPC: 00.13459
18469162241001: Event_283: system.switch_cpus1 progress event, total committed:155806653, progress insts committed: 1347405, IPC: 0.134606
18469162241001: Event_282: system.switch_cpus0 progress event, total committed:154695631, progress insts committed: 1347360, IPC: 0.134601
18472495574334: Event_282: system.switch_cpus0 progress event, total committed:156077566, progress insts committed: 1381935, IPC: 0.138055
18472495574334: Event_283: system.switch_cpus1 progress event, total committed:157188648, progress insts committed: 1381995, IPC: 0.138061
18472495574334: Event_284: system.switch_cpus2 progress event, total committed:155942448, progress insts committed: 1381908, IPC: 0.138053
18472495574334: Event_285: system.switch_cpus3 progress event, total committed:157105443, progress insts committed: 1382235, IPC: 0.138085
18475828907667: Event_285: system.switch_cpus3 progress event, total committed:158508288, progress insts committed: 1402845, IPC: 0.140144
18475828907667: Event_284: system.switch_cpus2 progress event, total committed:157345338, progress insts committed: 1402890, IPC: 0.140149
18475828907667: Event_283: system.switch_cpus1 progress event, total committed:158591808, progress insts committed: 1403160, IPC: 0.140176
18475828907667: Event_282: system.switch_cpus0 progress event, total committed:157480306, progress insts committed: 1402740, IPC: 0.140134
18479162241000: Event_282: system.switch_cpus0 progress event, total committed:158985395, progress insts committed: 1505089, IPC: 0.150358
18479162241000: Event_283: system.switch_cpus1 progress event, total committed:159206611, progress insts committed: 614803, IPC: 0.0614188
18479162241000: Event_284: system.switch_cpus2 progress event, total committed:158960431, progress insts committed: 1615093, IPC: 0.161348
18479162241000: Event_285: system.switch_cpus3 progress event, total committed:159188890, progress insts committed: 680602, IPC: 0.0679921
18482495574333: Event_285: system.switch_cpus3 progress event, total committed:159776752, progress insts committed: 587862, IPC: 0.0587274
18482495574333: Event_284: system.switch_cpus2 progress event, total committed:159548293, progress insts committed: 587862, IPC: 0.0587274
18482495574333: Event_283: system.switch_cpus1 progress event, total committed:159794476, progress insts committed: 587865, IPC: 0.0587277
18482495574333: Event_282: system.switch_cpus0 progress event, total committed:159573260, progress insts committed: 587865, IPC: 0.0587277
18485828907666: Event_282: system.switch_cpus0 progress event, total committed:160154387, progress insts committed: 581127, IPC: 0.0580546
18485828907666: Event_283: system.switch_cpus1 progress event, total committed:160375603, progress insts committed: 581127, IPC: 0.0580546
18485828907666: Event_284: system.switch_cpus2 progress event, total committed:160129423, progress insts committed: 581130, IPC: 0.0580549
18485828907666: Event_285: system.switch_cpus3 progress event, total committed:160357882, progress insts committed: 581130, IPC: 0.0580549
18489162240999: Event_285: system.switch_cpus3 progress event, total committed:162059801, progress insts committed: 1701919, IPC: 0.170022
18489162240999: Event_284: system.switch_cpus2 progress event, total committed:160904200, progress insts committed: 774777, IPC: 0.0774002
18489162240999: Event_283: system.switch_cpus1 progress event, total committed:162152531, progress insts committed: 1776928, IPC: 0.177515
18489162240999: Event_282: system.switch_cpus0 progress event, total committed:161025623, progress insts committed: 871236, IPC: 0.0870365
18492495574332: Event_282: system.switch_cpus0 progress event, total committed:163407064, progress insts committed: 2381441, IPC: 0.237906
18492495574332: Event_283: system.switch_cpus1 progress event, total committed:164542010, progress insts committed: 2389479, IPC: 0.238709
18492495574332: Event_284: system.switch_cpus2 progress event, total committed:163266890, progress insts committed: 2362690, IPC: 0.236033
18492495574332: Event_285: system.switch_cpus3 progress event, total committed:164439331, progress insts committed: 2379530, IPC: 0.237715
18495828907665: Event_285: system.switch_cpus3 progress event, total committed:166856685, progress insts committed: 2417354, IPC: 0.241494
18495828907665: Event_284: system.switch_cpus2 progress event, total committed:165683150, progress insts committed: 2416260, IPC: 0.241384
18495828907665: Event_283: system.switch_cpus1 progress event, total committed:166965420, progress insts committed: 2423410, IPC: 0.242099
18495828907665: Event_282: system.switch_cpus0 progress event, total committed:165831083, progress insts committed: 2424019, IPC: 0.242159
18499162240998: Event_282: system.switch_cpus0 progress event, total committed:168195254, progress insts committed: 2364171, IPC: 0.236181
18499162240998: Event_283: system.switch_cpus1 progress event, total committed:169355225, progress insts committed: 2389805, IPC: 0.238742
18499162240998: Event_284: system.switch_cpus2 progress event, total committed:168083405, progress insts committed: 2400255, IPC: 0.239785
18499162240998: Event_285: system.switch_cpus3 progress event, total committed:169260807, progress insts committed: 2404122, IPC: 0.240172
18502495574331: Event_285: system.switch_cpus3 progress event, total committed:171690525, progress insts committed: 2429718, IPC: 0.242729
18502495574331: Event_284: system.switch_cpus2 progress event, total committed:170518750, progress insts committed: 2435345, IPC: 0.243291
18502495574331: Event_283: system.switch_cpus1 progress event, total committed:171771210, progress insts committed: 2415985, IPC: 0.241357
18502495574331: Event_282: system.switch_cpus0 progress event, total committed:170586713, progress insts committed: 2391459, IPC: 0.238907
18505828907664: Event_282: system.switch_cpus0 progress event, total committed:173012488, progress insts committed: 2425775, IPC: 0.242335
18505828907664: Event_283: system.switch_cpus1 progress event, total committed:175233558, progress insts committed: 3462348, IPC: 0.345889
18505828907664: Event_284: system.switch_cpus2 progress event, total committed:172934346, progress insts committed: 2415596, IPC: 0.241318
18505828907664: Event_285: system.switch_cpus3 progress event, total committed:174361657, progress insts committed: 2671132, IPC: 0.266846
18509162240997: Event_285: system.switch_cpus3 progress event, total committed:180247829, progress insts committed: 5886172, IPC: 0.588029
18509162240997: Event_284: system.switch_cpus2 progress event, total committed:178185424, progress insts committed: 5251078, IPC: 0.524583
18509162240997: Event_283: system.switch_cpus1 progress event, total committed:180385095, progress insts committed: 5151537, IPC: 0.514639
18509162240997: Event_282: system.switch_cpus0 progress event, total committed:178370901, progress insts committed: 5358413, IPC: 0.535305
18512495574330: Event_282: system.switch_cpus0 progress event, total committed:184030268, progress insts committed: 5659367, IPC: 0.565371
18512495574330: Event_283: system.switch_cpus1 progress event, total committed:186053979, progress insts committed: 5668884, IPC: 0.566322
18512495574330: Event_284: system.switch_cpus2 progress event, total committed:183849048, progress insts committed: 5663624, IPC: 0.565796
18512495574330: Event_285: system.switch_cpus3 progress event, total committed:185896480, progress insts committed: 5648651, IPC: 000.5643
18515828907663: Event_285: system.switch_cpus3 progress event, total committed:191584268, progress insts committed: 5687788, IPC: 00.56821
18515828907663: Event_284: system.switch_cpus2 progress event, total committed:189515878, progress insts committed: 5666830, IPC: 0.566116
18515828907663: Event_283: system.switch_cpus1 progress event, total committed:191755088, progress insts committed: 5701109, IPC: 0.569541
18515828907663: Event_282: system.switch_cpus0 progress event, total committed:189671478, progress insts committed: 5641210, IPC: 0.563557
18519162240996: Event_282: system.switch_cpus0 progress event, total committed:194820020, progress insts committed: 5148542, IPC: 0.514339
18519162240996: Event_283: system.switch_cpus1 progress event, total committed:196020251, progress insts committed: 4265163, IPC: 00.42609
18519162240996: Event_284: system.switch_cpus2 progress event, total committed:194746011, progress insts committed: 5230133, IPC: 00.52249
18519162240996: Event_285: system.switch_cpus3 progress event, total committed:195925211, progress insts committed: 4340943, IPC: 00.43366
18522495574329: Event_285: system.switch_cpus3 progress event, total committed:198315566, progress insts committed: 2390355, IPC: 0.238796
18522495574329: Event_284: system.switch_cpus2 progress event, total committed:197125646, progress insts committed: 2379635, IPC: 0.237726
18522495574329: Event_283: system.switch_cpus1 progress event, total committed:198358935, progress insts committed: 2338684, IPC: 0.233635
18522495574329: Event_282: system.switch_cpus0 progress event, total committed:197198719, progress insts committed: 2378699, IPC: 0.237632
18525828907662: Event_282: system.switch_cpus0 progress event, total committed:199473016, progress insts committed: 2274297, IPC: 0.227202
18525828907662: Event_283: system.switch_cpus1 progress event, total committed:200606206, progress insts committed: 2247271, IPC: 0.224502
18525828907662: Event_284: system.switch_cpus2 progress event, total committed:199394772, progress insts committed: 2269126, IPC: 0.226686
18525828907662: Event_285: system.switch_cpus3 progress event, total committed:200543113, progress insts committed: 2227547, IPC: 0.222532
18529162240995: Event_285: system.switch_cpus3 progress event, total committed:202817261, progress insts committed: 2274148, IPC: 0.227187
18529162240995: Event_284: system.switch_cpus2 progress event, total committed:201652434, progress insts committed: 2257662, IPC: 00.22554
18529162240995: Event_283: system.switch_cpus1 progress event, total committed:202851086, progress insts committed: 2244880, IPC: 0.224264
18529162240995: Event_282: system.switch_cpus0 progress event, total committed:201733854, progress insts committed: 2260838, IPC: 0.225858
18532495574328: Event_282: system.switch_cpus0 progress event, total committed:204023504, progress insts committed: 2289650, IPC: 0.228736
18532495574328: Event_283: system.switch_cpus1 progress event, total committed:205134576, progress insts committed: 2283490, IPC: 0.228121
18532495574328: Event_284: system.switch_cpus2 progress event, total committed:203912861, progress insts committed: 2260427, IPC: 0.225817
18532495574328: Event_285: system.switch_cpus3 progress event, total committed:205115707, progress insts committed: 2298446, IPC: 0.229615
18535828907661: Event_285: system.switch_cpus3 progress event, total committed:207444275, progress insts committed: 2328568, IPC: 0.232624
18535828907661: Event_284: system.switch_cpus2 progress event, total committed:206184793, progress insts committed: 2271932, IPC: 0.226966
18535828907661: Event_283: system.switch_cpus1 progress event, total committed:207470473, progress insts committed: 2335897, IPC: 0.233356
18535828907661: Event_282: system.switch_cpus0 progress event, total committed:206307595, progress insts committed: 2284091, IPC: 0.228181
18539162240994: Event_282: system.switch_cpus0 progress event, total committed:210676072, progress insts committed: 4368477, IPC: 0.436411
18539162240994: Event_283: system.switch_cpus1 progress event, total committed:212623263, progress insts committed: 5152790, IPC: 0.514764
18539162240994: Event_284: system.switch_cpus2 progress event, total committed:210429279, progress insts committed: 4244486, IPC: 0.424024
18539162240994: Event_285: system.switch_cpus3 progress event, total committed:212626713, progress insts committed: 5182438, IPC: 0.517726
18542495574327: Event_285: system.switch_cpus3 progress event, total committed:217662393, progress insts committed: 5035680, IPC: 0.503064
18542495574327: Event_284: system.switch_cpus2 progress event, total committed:215461106, progress insts committed: 5031827, IPC: 00.50268
18542495574327: Event_283: system.switch_cpus1 progress event, total committed:217645832, progress insts committed: 5022569, IPC: 0.501755
18542495574327: Event_282: system.switch_cpus0 progress event, total committed:215714991, progress insts committed: 5038919, IPC: 0.503388
18545828907660: Event_282: system.switch_cpus0 progress event, total committed:220801260, progress insts committed: 5086269, IPC: 0.508118
18545828907660: Event_283: system.switch_cpus1 progress event, total committed:222721941, progress insts committed: 5076109, IPC: 0.507103
18545828907660: Event_284: system.switch_cpus2 progress event, total committed:220532931, progress insts committed: 5071825, IPC: 0.506675
18545828907660: Event_285: system.switch_cpus3 progress event, total committed:222793262, progress insts committed: 5130869, IPC: 0.512574
18549162240993: Event_285: system.switch_cpus3 progress event, total committed:226255064, progress insts committed: 3461802, IPC: 0.345834
18549162240993: Event_284: system.switch_cpus2 progress event, total committed:224791151, progress insts committed: 4258220, IPC: 0.425396
18549162240993: Event_283: system.switch_cpus1 progress event, total committed:226183872, progress insts committed: 3461931, IPC: 0.345847
18549162240993: Event_282: system.switch_cpus0 progress event, total committed:224958473, progress insts committed: 4157213, IPC: 0.415306
18552495574326: Event_282: system.switch_cpus0 progress event, total committed:227359968, progress insts committed: 2401495, IPC: 0.239909
18552495574326: Event_283: system.switch_cpus1 progress event, total committed:228554035, progress insts committed: 2370163, IPC: 0.236779
18552495574326: Event_284: system.switch_cpus2 progress event, total committed:227188766, progress insts committed: 2397615, IPC: 0.239522
18552495574326: Event_285: system.switch_cpus3 progress event, total committed:228648934, progress insts committed: 2393870, IPC: 0.239148
18555828907659: Event_285: system.switch_cpus3 progress event, total committed:231024690, progress insts committed: 2375756, IPC: 0.237338
18555828907659: Event_284: system.switch_cpus2 progress event, total committed:229574285, progress insts committed: 2385519, IPC: 0.238313
18555828907659: Event_283: system.switch_cpus1 progress event, total committed:230884381, progress insts committed: 2330346, IPC: 0.232802
18555828907659: Event_282: system.switch_cpus0 progress event, total committed:229724033, progress insts committed: 2364065, IPC: 00.23617
18559162240992: Event_282: system.switch_cpus0 progress event, total committed:232080508, progress insts committed: 2356475, IPC: 0.235412
18559162240992: Event_283: system.switch_cpus1 progress event, total committed:233235965, progress insts committed: 2351584, IPC: 0.234923
18559162240992: Event_284: system.switch_cpus2 progress event, total committed:231925289, progress insts committed: 2351004, IPC: 0.234865
18559162240992: Event_285: system.switch_cpus3 progress event, total committed:233402941, progress insts committed: 2378251, IPC: 0.237587
18562495574325: Event_285: system.switch_cpus3 progress event, total committed:235787301, progress insts committed: 2384360, IPC: 0.238198
18562495574325: Event_284: system.switch_cpus2 progress event, total committed:234298675, progress insts committed: 2373386, IPC: 0.237101
18562495574325: Event_283: system.switch_cpus1 progress event, total committed:235621040, progress insts committed: 2385075, IPC: 0.238269
18562495574325: Event_282: system.switch_cpus0 progress event, total committed:234448973, progress insts committed: 2368465, IPC: 00.23661
18565828907658: Event_282: system.switch_cpus0 progress event, total committed:236952734, progress insts committed: 2503761, IPC: 0.250126
18565828907658: Event_283: system.switch_cpus1 progress event, total committed:239563310, progress insts committed: 3942270, IPC: 0.393833
18565828907658: Event_284: system.switch_cpus2 progress event, total committed:236771310, progress insts committed: 2472635, IPC: 0.247016
18565828907658: Event_285: system.switch_cpus3 progress event, total committed:239826343, progress insts committed: 4039042, IPC: 000.4035
18569162240991: Event_285: system.switch_cpus3 progress event, total committed:244797205, progress insts committed: 4970862, IPC: 0.496589
18569162240991: Event_284: system.switch_cpus2 progress event, total committed:242308615, progress insts committed: 5537305, IPC: 0.553177
18569162240991: Event_283: system.switch_cpus1 progress event, total committed:244535767, progress insts committed: 4972457, IPC: 0.496748
18569162240991: Event_282: system.switch_cpus0 progress event, total committed:242628182, progress insts committed: 5675448, IPC: 0.566977
18572495574324: Event_282: system.switch_cpus0 progress event, total committed:248125838, progress insts committed: 5497656, IPC: 0.549216
18572495574324: Event_283: system.switch_cpus1 progress event, total committed:250058461, progress insts committed: 5522694, IPC: 0.551717
18572495574324: Event_284: system.switch_cpus2 progress event, total committed:247806385, progress insts committed: 5497770, IPC: 0.549227
18572495574324: Event_285: system.switch_cpus3 progress event, total committed:250349089, progress insts committed: 5551884, IPC: 0.554633
18575828907657: Event_285: system.switch_cpus3 progress event, total committed:255937534, progress insts committed: 5588445, IPC: 0.558286
18575828907657: Event_284: system.switch_cpus2 progress event, total committed:253346054, progress insts committed: 5539669, IPC: 0.553413
18575828907657: Event_283: system.switch_cpus1 progress event, total committed:255641701, progress insts committed: 5583240, IPC: 0.557766
18575828907657: Event_282: system.switch_cpus0 progress event, total committed:253661360, progress insts committed: 5535522, IPC: 0.552999
18579162240990: Event_282: system.switch_cpus0 progress event, total committed:257447529, progress insts committed: 3786169, IPC: 0.378238
18579162240990: Event_283: system.switch_cpus1 progress event, total committed:257525096, progress insts committed: 1883395, IPC: 0.188151
18579162240990: Event_284: system.switch_cpus2 progress event, total committed:257435534, progress insts committed: 4089480, IPC: 0.408539
18579162240990: Event_285: system.switch_cpus3 progress event, total committed:257536049, progress insts committed: 1598515, IPC: 0.159692
18582495574323: Event_285: system.switch_cpus3 progress event, total committed:257694008, progress insts committed: 157959, IPC: 0.0157801
18582495574323: Event_284: system.switch_cpus2 progress event, total committed:257593571, progress insts committed: 158037, IPC: 0.0157879
18582495574323: Event_283: system.switch_cpus1 progress event, total committed:257683170, progress insts committed: 158074, IPC: 0.0157916
18582495574323: Event_282: system.switch_cpus0 progress event, total committed:257606553, progress insts committed: 159024, IPC: 0.0158865
18585828907656: Event_282: system.switch_cpus0 progress event, total committed:257758650, progress insts committed: 152097, IPC: 0.0151945
18585828907656: Event_283: system.switch_cpus1 progress event, total committed:257838204, progress insts committed: 155034, IPC: 0.0154879
18585828907656: Event_284: system.switch_cpus2 progress event, total committed:257748458, progress insts committed: 154887, IPC: 0.0154732
18585828907656: Event_285: system.switch_cpus3 progress event, total committed:257849603, progress insts committed: 155595, IPC: 0.0155439
18589162240989: Event_285: system.switch_cpus3 progress event, total committed:258016178, progress insts committed: 166575, IPC: 0.0166408
18589162240989: Event_284: system.switch_cpus2 progress event, total committed:257902856, progress insts committed: 154398, IPC: 0.0154244
18589162240989: Event_283: system.switch_cpus1 progress event, total committed:258004676, progress insts committed: 166472, IPC: 0.0166306
18589162240989: Event_282: system.switch_cpus0 progress event, total committed:257914332, progress insts committed: 155682, IPC: 0.0155526
18592495574322: Event_282: system.switch_cpus0 progress event, total committed:258084582, progress insts committed: 170250, IPC: 0.017008
18592495574322: Event_283: system.switch_cpus1 progress event, total committed:258175124, progress insts committed: 170448, IPC: 0.0170278
18592495574322: Event_284: system.switch_cpus2 progress event, total committed:258072170, progress insts committed: 169314, IPC: 0.0169145
18592495574322: Event_285: system.switch_cpus3 progress event, total committed:258186578, progress insts committed: 170400, IPC: 0.017023
18595828907655: Event_285: system.switch_cpus3 progress event, total committed:258357515, progress insts committed: 170937, IPC: 0.0170766
18595828907655: Event_284: system.switch_cpus2 progress event, total committed:258241085, progress insts committed: 168915, IPC: 0.0168746
18595828907655: Event_283: system.switch_cpus1 progress event, total committed:258345920, progress insts committed: 170796, IPC: 0.0170625
18595828907655: Event_282: system.switch_cpus0 progress event, total committed:258253953, progress insts committed: 169371, IPC: 0.0169202
18599162240988: Event_282: system.switch_cpus0 progress event, total committed:258397452, progress insts committed: 143499, IPC: 0.0143356
18599162240988: Event_283: system.switch_cpus1 progress event, total committed:259491138, progress insts committed: 1145218, IPC: 0.114407
18599162240988: Event_284: system.switch_cpus2 progress event, total committed:258384326, progress insts committed: 143241, IPC: 0.0143098
18599162240988: Event_285: system.switch_cpus3 progress event, total committed:259718536, progress insts committed: 1361021, IPC: 0.135966
18602495574321: Event_285: system.switch_cpus3 progress event, total committed:261592778, progress insts committed: 1874242, IPC: 0.187237
18602495574321: Event_284: system.switch_cpus2 progress event, total committed:259457118, progress insts committed: 1072792, IPC: 0.107172
18602495574321: Event_283: system.switch_cpus1 progress event, total committed:261397268, progress insts committed: 1906130, IPC: 0.190422
18602495574321: Event_282: system.switch_cpus0 progress event, total committed:259710851, progress insts committed: 1313399, IPC: 0.131209
18605828907654: Event_282: system.switch_cpus0 progress event, total committed:261885831, progress insts committed: 2174980, IPC: 0.217281
18605828907654: Event_283: system.switch_cpus1 progress event, total committed:262691237, progress insts committed: 1293969, IPC: 0.129268
18605828907654: Event_284: system.switch_cpus2 progress event, total committed:261667238, progress insts committed: 2210120, IPC: 0.220791
18605828907654: Event_285: system.switch_cpus3 progress event, total committed:262717241, progress insts committed: 1124463, IPC: 0.112334
18609162240987: Event_285: system.switch_cpus3 progress event, total committed:264090141, progress insts committed: 1372900, IPC: 0.137153
18609162240987: Event_284: system.switch_cpus2 progress event, total committed:262794032, progress insts committed: 1126794, IPC: 0.112567
18609162240987: Event_283: system.switch_cpus1 progress event, total committed:263981396, progress insts committed: 1290159, IPC: 0.128887
18609162240987: Event_282: system.switch_cpus0 progress event, total committed:262848762, progress insts committed: 962931, IPC: 0.0961968
18612495574320: Event_282: system.switch_cpus0 progress event, total committed:263959449, progress insts committed: 1110687, IPC: 0.110958
18612495574320: Event_283: system.switch_cpus1 progress event, total committed:265325586, progress insts committed: 1344190, IPC: 0.134285
18612495574320: Event_284: system.switch_cpus2 progress event, total committed:263730430, progress insts committed: 936398, IPC: 0.0935462
18612495574320: Event_285: system.switch_cpus3 progress event, total committed:265433106, progress insts committed: 1342965, IPC: 0.134162
18615828907653: Event_285: system.switch_cpus3 progress event, total committed:266625688, progress insts committed: 1192582, IPC: 0.119139
18615828907653: Event_284: system.switch_cpus2 progress event, total committed:264995061, progress insts committed: 1264631, IPC: 0.126337
18615828907653: Event_283: system.switch_cpus1 progress event, total committed:266581309, progress insts committed: 1255723, IPC: 0.125447
18615828907653: Event_282: system.switch_cpus0 progress event, total committed:265224259, progress insts committed: 1264810, IPC: 0.126355
18619162240986: Event_282: system.switch_cpus0 progress event, total committed:266777042, progress insts committed: 1552783, IPC: 0.155123
18619162240986: Event_283: system.switch_cpus1 progress event, total committed:267095773, progress insts committed: 514464, IPC: 0.051395
18619162240986: Event_284: system.switch_cpus2 progress event, total committed:266727328, progress insts committed: 1732267, IPC: 0.173053
18619162240986: Event_285: system.switch_cpus3 progress event, total committed:267195252, progress insts committed: 569564, IPC: 0.0568994
18622495574319: Event_285: system.switch_cpus3 progress event, total committed:269061192, progress insts committed: 1865940, IPC: 0.186407
18622495574319: Event_284: system.switch_cpus2 progress event, total committed:267196227, progress insts committed: 468899, IPC: 0.046843
18622495574319: Event_283: system.switch_cpus1 progress event, total committed:268934382, progress insts committed: 1838609, IPC: 0.183677
18622495574319: Event_282: system.switch_cpus0 progress event, total committed:267424134, progress insts committed: 647092, IPC: 0.0646445
18625828907652: Event_282: system.switch_cpus0 progress event, total committed:268715710, progress insts committed: 1291576, IPC: 0.129028
18625828907652: Event_283: system.switch_cpus1 progress event, total committed:270221712, progress insts committed: 1287330, IPC: 0.128604
18625828907652: Event_284: system.switch_cpus2 progress event, total committed:268493982, progress insts committed: 1297755, IPC: 0.129646
18625828907652: Event_285: system.switch_cpus3 progress event, total committed:270347472, progress insts committed: 1286280, IPC: 0.128499
18629162240985: Event_285: system.switch_cpus3 progress event, total committed:271058203, progress insts committed: 710731, IPC: 0.071002
18629162240985: Event_284: system.switch_cpus2 progress event, total committed:270241752, progress insts committed: 1747770, IPC: 0.174602
18629162240985: Event_283: system.switch_cpus1 progress event, total committed:271028866, progress insts committed: 807154, IPC: 0.0806347
18629162240985: Event_282: system.switch_cpus0 progress event, total committed:270450910, progress insts committed: 1735200, IPC: 0.173346
18632495574318: Event_282: system.switch_cpus0 progress event, total committed:271237376, progress insts committed: 786466, IPC: 0.078568
18632495574318: Event_283: system.switch_cpus1 progress event, total committed:272630478, progress insts committed: 1601612, IPC: 0.160001
18632495574318: Event_284: system.switch_cpus2 progress event, total committed:271190863, progress insts committed: 949111, IPC: 0.0948162
18632495574318: Event_285: system.switch_cpus3 progress event, total committed:272783213, progress insts committed: 1725010, IPC: 0.172328
18635828907651: Event_285: system.switch_cpus3 progress event, total committed:275168465, progress insts committed: 2385252, IPC: 0.238287
18635828907651: Event_284: system.switch_cpus2 progress event, total committed:273273204, progress insts committed: 2082341, IPC: 0.208026
18635828907651: Event_283: system.switch_cpus1 progress event, total committed:275047673, progress insts committed: 2417195, IPC: 0.241478
18635828907651: Event_282: system.switch_cpus0 progress event, total committed:273487192, progress insts committed: 2249816, IPC: 0.224757
18639162240984: Event_282: system.switch_cpus0 progress event, total committed:275884587, progress insts committed: 2397395, IPC: 000.2395
18639162240984: Event_283: system.switch_cpus1 progress event, total committed:277434508, progress insts committed: 2386835, IPC: 0.238445
18639162240984: Event_284: system.switch_cpus2 progress event, total committed:275691613, progress insts committed: 2418409, IPC: 0.241599
18639162240984: Event_285: system.switch_cpus3 progress event, total committed:277565738, progress insts committed: 2397273, IPC: 0.239488
18642495574317: Event_285: system.switch_cpus3 progress event, total committed:282819657, progress insts committed: 5253919, IPC: 0.524867
18642495574317: Event_284: system.switch_cpus2 progress event, total committed:279638664, progress insts committed: 3947051, IPC: 00.39431
18642495574317: Event_283: system.switch_cpus1 progress event, total committed:282640082, progress insts committed: 5205574, IPC: 0.520037
18642495574317: Event_282: system.switch_cpus0 progress event, total committed:280051430, progress insts committed: 4166843, IPC: 0.416268
18645828907650: Event_282: system.switch_cpus0 progress event, total committed:285530547, progress insts committed: 5479117, IPC: 0.547364
18645828907650: Event_283: system.switch_cpus1 progress event, total committed:288108873, progress insts committed: 5468791, IPC: 0.546332
18645828907650: Event_284: system.switch_cpus2 progress event, total committed:285161936, progress insts committed: 5523272, IPC: 0.551775
18645828907650: Event_285: system.switch_cpus3 progress event, total committed:288287170, progress insts committed: 5467513, IPC: 0.546205
18649162240983: Event_285: system.switch_cpus3 progress event, total committed:291059642, progress insts committed: 2772472, IPC: 00.27697
18649162240983: Event_284: system.switch_cpus2 progress event, total committed:289285181, progress insts committed: 4123245, IPC: 0.411912
18649162240983: Event_283: system.switch_cpus1 progress event, total committed:290983078, progress insts committed: 2874205, IPC: 0.287133
18649162240983: Event_282: system.switch_cpus0 progress event, total committed:289481514, progress insts committed: 3950967, IPC: 0.394702
18652495574316: Event_282: system.switch_cpus0 progress event, total committed:291782105, progress insts committed: 2300591, IPC: 0.229829
18652495574316: Event_283: system.switch_cpus1 progress event, total committed:293286156, progress insts committed: 2303078, IPC: 0.230077
18652495574316: Event_284: system.switch_cpus2 progress event, total committed:291577196, progress insts committed: 2292015, IPC: 0.228972
18652495574316: Event_285: system.switch_cpus3 progress event, total committed:293349516, progress insts committed: 2289874, IPC: 0.228758
18655828907649: Event_285: system.switch_cpus3 progress event, total committed:297370866, progress insts committed: 4021350, IPC: 0.401733
18655828907649: Event_284: system.switch_cpus2 progress event, total committed:293913816, progress insts committed: 2336620, IPC: 0.233428
18655828907649: Event_283: system.switch_cpus1 progress event, total committed:297289611, progress insts committed: 4003455, IPC: 0.399945
18655828907649: Event_282: system.switch_cpus0 progress event, total committed:294119224, progress insts committed: 2337119, IPC: 0.233478
18659162240982: Event_282: system.switch_cpus0 progress event, total committed:299317470, progress insts committed: 5198246, IPC: 0.519305
18659162240982: Event_283: system.switch_cpus1 progress event, total committed:301943052, progress insts committed: 4653441, IPC: 0.464879
18659162240982: Event_284: system.switch_cpus2 progress event, total committed:298957212, progress insts committed: 5043396, IPC: 0.503835
18659162240982: Event_285: system.switch_cpus3 progress event, total committed:302022612, progress insts committed: 4651746, IPC: 0.464709
18662495574315: Event_285: system.switch_cpus3 progress event, total committed:305699894, progress insts committed: 3677282, IPC: 00.36736
18662495574315: Event_284: system.switch_cpus2 progress event, total committed:303715384, progress insts committed: 4758172, IPC: 0.475341
18662495574315: Event_283: system.switch_cpus1 progress event, total committed:305621464, progress insts committed: 3678412, IPC: 0.367473
18662495574315: Event_282: system.switch_cpus0 progress event, total committed:303956106, progress insts committed: 4638636, IPC: 000.4634
18665828907648: Event_282: system.switch_cpus0 progress event, total committed:306442711, progress insts committed: 2486605, IPC: 0.248412
18665828907648: Event_283: system.switch_cpus1 progress event, total committed:308115009, progress insts committed: 2493545, IPC: 0.249105
18665828907648: Event_284: system.switch_cpus2 progress event, total committed:306218070, progress insts committed: 2502686, IPC: 0.250018
18665828907648: Event_285: system.switch_cpus3 progress event, total committed:308198713, progress insts committed: 2498819, IPC: 0.249632
18669162240981: Event_285: system.switch_cpus3 progress event, total committed:311972969, progress insts committed: 3774256, IPC: 0.377048
18669162240981: Event_284: system.switch_cpus2 progress event, total committed:308691238, progress insts committed: 2473168, IPC: 0.247069
18669162240981: Event_283: system.switch_cpus1 progress event, total committed:311724468, progress insts committed: 3609459, IPC: 0.360585
18669162240981: Event_282: system.switch_cpus0 progress event, total committed:308907862, progress insts committed: 2465151, IPC: 0.246269
18672495574314: Event_282: system.switch_cpus0 progress event, total committed:313808221, progress insts committed: 4900359, IPC: 0.489546
18672495574314: Event_283: system.switch_cpus1 progress event, total committed:316560078, progress insts committed: 4835610, IPC: 0.483077
18672495574314: Event_284: system.switch_cpus2 progress event, total committed:313392888, progress insts committed: 4701650, IPC: 0.469695
18672495574314: Event_285: system.switch_cpus3 progress event, total committed:316675674, progress insts committed: 4702705, IPC: 000.4698
18675828907647: Event_285: system.switch_cpus3 progress event, total committed:320682299, progress insts committed: 4006625, IPC: 0.400262
18675828907647: Event_284: system.switch_cpus2 progress event, total committed:318956850, progress insts committed: 5563962, IPC: 00.55584
18675828907647: Event_283: system.switch_cpus1 progress event, total committed:320679061, progress insts committed: 4118983, IPC: 0.411486
18675828907647: Event_282: system.switch_cpus0 progress event, total committed:319363408, progress insts committed: 5555187, IPC: 0.554963
18679162240980: Event_282: system.switch_cpus0 progress event, total committed:320754704, progress insts committed: 1391296, IPC: 00.13899
18679162240980: Event_283: system.switch_cpus1 progress event, total committed:320857114, progress insts committed: 178053, IPC: 0.0177875
18679162240980: Event_284: system.switch_cpus2 progress event, total committed:320739439, progress insts committed: 1782589, IPC: 0.178081
18679162240980: Event_285: system.switch_cpus3 progress event, total committed:320859664, progress insts committed: 177365, IPC: 0.0177188
18682495574313: Event_285: system.switch_cpus3 progress event, total committed:321025269, progress insts committed: 165605, IPC: 0.0165439
18682495574313: Event_284: system.switch_cpus2 progress event, total committed:320892144, progress insts committed: 152705, IPC: 0.0152552
18682495574313: Event_283: system.switch_cpus1 progress event, total committed:321022485, progress insts committed: 165371, IPC: 0.0165206
18682495574313: Event_282: system.switch_cpus0 progress event, total committed:320906506, progress insts committed: 151802, IPC: 0.015165
18685828907646: Event_282: system.switch_cpus0 progress event, total committed:321058789, progress insts committed: 152283, IPC: 0.0152131
18685828907646: Event_283: system.switch_cpus1 progress event, total committed:321374584, progress insts committed: 352099, IPC: 0.0351747
18685828907646: Event_284: system.switch_cpus2 progress event, total committed:321045132, progress insts committed: 152988, IPC: 0.0152835
18685828907646: Event_285: system.switch_cpus3 progress event, total committed:321431569, progress insts committed: 406300, IPC: 0.0405894
18689162240979: Event_285: system.switch_cpus3 progress event, total committed:323155474, progress insts committed: 1723905, IPC: 0.172218
18689162240979: Event_284: system.switch_cpus2 progress event, total committed:321221329, progress insts committed: 176197, IPC: 0.0176021
18689162240979: Event_283: system.switch_cpus1 progress event, total committed:323151349, progress insts committed: 1776765, IPC: 0.177499
18689162240979: Event_282: system.switch_cpus0 progress event, total committed:321502607, progress insts committed: 443818, IPC: 0.0443374
18692495574312: Event_282: system.switch_cpus0 progress event, total committed:323002652, progress insts committed: 1500045, IPC: 0.149854
18692495574312: Event_283: system.switch_cpus1 progress event, total committed:324133731, progress insts committed: 982382, IPC: 00.09814
18692495574312: Event_284: system.switch_cpus2 progress event, total committed:322733359, progress insts committed: 1512030, IPC: 0.151052
18692495574312: Event_285: system.switch_cpus3 progress event, total committed:324150336, progress insts committed: 994862, IPC: 0.0993867
18695828907645: Event_285: system.switch_cpus3 progress event, total committed:325417275, progress insts committed: 1266939, IPC: 0.126567
18695828907645: Event_284: system.switch_cpus2 progress event, total committed:324031941, progress insts committed: 1298582, IPC: 0.129728
18695828907645: Event_283: system.switch_cpus1 progress event, total committed:325401455, progress insts committed: 1267724, IPC: 0.126646
18695828907645: Event_282: system.switch_cpus0 progress event, total committed:324288259, progress insts committed: 1285607, IPC: 0.128432
18699162240978: Event_282: system.switch_cpus0 progress event, total committed:325376995, progress insts committed: 1088736, IPC: 0.108765
18699162240978: Event_283: system.switch_cpus1 progress event, total committed:327238215, progress insts committed: 1836760, IPC: 0.183492
18699162240978: Event_284: system.switch_cpus2 progress event, total committed:325309956, progress insts committed: 1278015, IPC: 0.127674
18699162240978: Event_285: system.switch_cpus3 progress event, total committed:327251925, progress insts committed: 1834650, IPC: 0.183282
18702495574311: Event_285: system.switch_cpus3 progress event, total committed:328500538, progress insts committed: 1248613, IPC: 0.124736
18702495574311: Event_284: system.switch_cpus2 progress event, total committed:327165720, progress insts committed: 1855764, IPC: 0.185391
18702495574311: Event_283: system.switch_cpus1 progress event, total committed:328496418, progress insts committed: 1258203, IPC: 0.125694
18702495574311: Event_282: system.switch_cpus0 progress event, total committed:327452923, progress insts committed: 2075928, IPC: 0.207385
18705828907644: Event_282: system.switch_cpus0 progress event, total committed:329279046, progress insts committed: 1826123, IPC: 00.18243
18705828907644: Event_283: system.switch_cpus1 progress event, total committed:330914099, progress insts committed: 2417681, IPC: 0.241526
18705828907644: Event_284: system.switch_cpus2 progress event, total committed:328913753, progress insts committed: 1748033, IPC: 0.174628
18705828907644: Event_285: system.switch_cpus3 progress event, total committed:330946663, progress insts committed: 2446125, IPC: 0.244368
18709162240977: Event_285: system.switch_cpus3 progress event, total committed:336501744, progress insts committed: 5555081, IPC: 0.554953
18709162240977: Event_284: system.switch_cpus2 progress event, total committed:333147489, progress insts committed: 4233736, IPC: 00.42295
18709162240977: Event_283: system.switch_cpus1 progress event, total committed:336473584, progress insts committed: 5559485, IPC: 0.555393
18709162240977: Event_282: system.switch_cpus0 progress event, total committed:333797502, progress insts committed: 4518456, IPC: 0.451394
18712495574310: Event_282: system.switch_cpus0 progress event, total committed:337617728, progress insts committed: 3820226, IPC: 0.381641
18712495574310: Event_283: system.switch_cpus1 progress event, total committed:339196025, progress insts committed: 2722441, IPC: 0.271972
18712495574310: Event_284: system.switch_cpus2 progress event, total committed:337248259, progress insts committed: 4100770, IPC: 0.409667
18712495574310: Event_285: system.switch_cpus3 progress event, total committed:339214941, progress insts committed: 2713197, IPC: 0.271048
18715828907643: Event_285: system.switch_cpus3 progress event, total committed:344189383, progress insts committed: 4974442, IPC: 0.496947
18715828907643: Event_284: system.switch_cpus2 progress event, total committed:339747954, progress insts committed: 2499695, IPC: 00.24972
18715828907643: Event_283: system.switch_cpus1 progress event, total committed:344172536, progress insts committed: 4976511, IPC: 0.497153
18715828907643: Event_282: system.switch_cpus0 progress event, total committed:341404962, progress insts committed: 3787234, IPC: 0.378345
18719162240976: Event_282: system.switch_cpus0 progress event, total committed:345295399, progress insts committed: 3890437, IPC: 0.388655
18719162240976: Event_283: system.switch_cpus1 progress event, total committed:347012296, progress insts committed: 2839760, IPC: 0.283692
18719162240976: Event_284: system.switch_cpus2 progress event, total committed:344862346, progress insts committed: 5114392, IPC: 0.510928
18719162240976: Event_285: system.switch_cpus3 progress event, total committed:346957736, progress insts committed: 2768353, IPC: 0.276558
18722495574309: Event_285: system.switch_cpus3 progress event, total committed:352059202, progress insts committed: 5101466, IPC: 0.509636
18722495574309: Event_284: system.switch_cpus2 progress event, total committed:347524816, progress insts committed: 2662470, IPC: 0.265981
18722495574309: Event_283: system.switch_cpus1 progress event, total committed:352057330, progress insts committed: 5045034, IPC: 0.503999
18722495574309: Event_282: system.switch_cpus0 progress event, total committed:349248723, progress insts committed: 3953324, IPC: 0.394937
18725828907642: Event_282: system.switch_cpus0 progress event, total committed:352915060, progress insts committed: 3666337, IPC: 0.366267
18725828907642: Event_283: system.switch_cpus1 progress event, total committed:353026546, progress insts committed: 969216, IPC: 0.0968247
18725828907642: Event_284: system.switch_cpus2 progress event, total committed:352884180, progress insts committed: 5359364, IPC: 000.5354
18725828907642: Event_285: system.switch_cpus3 progress event, total committed:353026720, progress insts committed: 967518, IPC: 0.096655
18729162240975: Event_285: system.switch_cpus3 progress event, total committed:354036069, progress insts committed: 1009349, IPC: 0.100834
18729162240975: Event_284: system.switch_cpus2 progress event, total committed:353026819, progress insts committed: 142639, IPC: 0.0142496
18729162240975: Event_283: system.switch_cpus1 progress event, total committed:354031269, progress insts committed: 1004723, IPC: 0.100372
18729162240975: Event_282: system.switch_cpus0 progress event, total committed:353055098, progress insts committed: 140038, IPC: 0.0139898
18732495574308: Event_282: system.switch_cpus0 progress event, total committed:354044572, progress insts committed: 989474, IPC: 0.0988485
18732495574308: Event_283: system.switch_cpus1 progress event, total committed:355472843, progress insts committed: 1441574, IPC: 0.144013
18732495574308: Event_284: system.switch_cpus2 progress event, total committed:353502393, progress insts committed: 475574, IPC: 0.0475098
18732495574308: Event_285: system.switch_cpus3 progress event, total committed:355474762, progress insts committed: 1438693, IPC: 0.143725
18735828907641: Event_285: system.switch_cpus3 progress event, total committed:357079554, progress insts committed: 1604792, IPC: 0.160319
18735828907641: Event_284: system.switch_cpus2 progress event, total committed:355243605, progress insts committed: 1741212, IPC: 0.173947
18735828907641: Event_283: system.switch_cpus1 progress event, total committed:357092644, progress insts committed: 1619801, IPC: 0.161818
18735828907641: Event_282: system.switch_cpus0 progress event, total committed:355475946, progress insts committed: 1431374, IPC: 0.142994
18739162240974: Event_282: system.switch_cpus0 progress event, total committed:357559197, progress insts committed: 2083251, IPC: 0.208117
18739162240974: Event_283: system.switch_cpus1 progress event, total committed:361072951, progress insts committed: 3980307, IPC: 0.397633
18739162240974: Event_284: system.switch_cpus2 progress event, total committed:357028345, progress insts committed: 1784740, IPC: 0.178296
18739162240974: Event_285: system.switch_cpus3 progress event, total committed:361062226, progress insts committed: 3982672, IPC: 0.397869
18742495574307: Event_285: system.switch_cpus3 progress event, total committed:365432388, progress insts committed: 4370162, IPC: 0.436579
18742495574307: Event_284: system.switch_cpus2 progress event, total committed:361540726, progress insts committed: 4512381, IPC: 0.450787
18742495574307: Event_283: system.switch_cpus1 progress event, total committed:365403458, progress insts committed: 4330507, IPC: 0.432618
18742495574307: Event_282: system.switch_cpus0 progress event, total committed:362072064, progress insts committed: 4512867, IPC: 0.450835
18745828907640: Event_282: system.switch_cpus0 progress event, total committed:366352961, progress insts committed: 4280897, IPC: 0.427662
18745828907640: Event_283: system.switch_cpus1 progress event, total committed:369682647, progress insts committed: 4279189, IPC: 0.427491
18745828907640: Event_284: system.switch_cpus2 progress event, total committed:365844613, progress insts committed: 4303887, IPC: 0.429958
18745828907640: Event_285: system.switch_cpus3 progress event, total committed:369684568, progress insts committed: 4252180, IPC: 0.424793
18749162240973: Event_285: system.switch_cpus3 progress event, total committed:370382219, progress insts committed: 697651, IPC: 0.0696953
18749162240973: Event_284: system.switch_cpus2 progress event, total committed:369696573, progress insts committed: 3851960, IPC: 0.384811
18749162240973: Event_283: system.switch_cpus1 progress event, total committed:370392782, progress insts committed: 710135, IPC: 0.0709425
18749162240973: Event_282: system.switch_cpus0 progress event, total committed:369727906, progress insts committed: 3374945, IPC: 0.337157
18752495574306: Event_282: system.switch_cpus0 progress event, total committed:370589301, progress insts committed: 861395, IPC: 0.0860534
18752495574306: Event_283: system.switch_cpus1 progress event, total committed:372383677, progress insts committed: 1990895, IPC: 00.19889
18752495574306: Event_284: system.switch_cpus2 progress event, total committed:370122077, progress insts committed: 425504, IPC: 0.0425078
18752495574306: Event_285: system.switch_cpus3 progress event, total committed:372378727, progress insts committed: 1996508, IPC: 0.199451
18755828907639: Event_285: system.switch_cpus3 progress event, total committed:378638005, progress insts committed: 6259278, IPC: 0.625302
18755828907639: Event_284: system.switch_cpus2 progress event, total committed:372368442, progress insts committed: 2246365, IPC: 0.224412
18755828907639: Event_283: system.switch_cpus1 progress event, total committed:378637771, progress insts committed: 6254094, IPC: 0.624784
18755828907639: Event_282: system.switch_cpus0 progress event, total committed:374184097, progress insts committed: 3594796, IPC: 00.35912
18759162240972: Event_282: system.switch_cpus0 progress event, total committed:381923191, progress insts committed: 7739094, IPC: 0.773135
18759162240972: Event_283: system.switch_cpus1 progress event, total committed:398720503, progress insts committed: 20082732, IPC: 02.00626
18759162240972: Event_284: system.switch_cpus2 progress event, total committed:380030996, progress insts committed: 7662554, IPC: 0.765489
18759162240972: Event_285: system.switch_cpus3 progress event, total committed:398539163, progress insts committed: 19901158, IPC: 01.98813
18762495574305: Event_285: system.switch_cpus3 progress event, total committed:424283048, progress insts committed: 25743885, IPC: 02.57181
18762495574305: Event_284: system.switch_cpus2 progress event, total committed:402726146, progress insts committed: 22695150, IPC: 02.26725
18762495574305: Event_283: system.switch_cpus1 progress event, total committed:423500803, progress insts committed: 24780300, IPC: 02.47555
18762495574305: Event_282: system.switch_cpus0 progress event, total committed:406873376, progress insts committed: 24950185, IPC: 02.49252
18765828907638: Event_282: system.switch_cpus0 progress event, total committed:428878427, progress insts committed: 22005051, IPC: 002.1983
18765828907638: Event_283: system.switch_cpus1 progress event, total committed:444285951, progress insts committed: 20785148, IPC: 02.07644
18765828907638: Event_284: system.switch_cpus2 progress event, total committed:426200883, progress insts committed: 23474737, IPC: 02.34513
18765828907638: Event_285: system.switch_cpus3 progress event, total committed:444704194, progress insts committed: 20421146, IPC: 02.04007
Exiting @ tick 18766441929843 because a thread reached the max instruction count
