
---------- Begin Simulation Statistics ----------
final_tick                               18761641287957                       # Number of ticks from beginning of simulation (restored from checkpoints and never reset)
host_inst_rate                                  55031                       # Simulator instruction rate (inst/s)
host_mem_usage                               17865360                       # Number of bytes of host memory used
host_op_rate                                    98228                       # Simulator op (including micro ops) rate (op/s)
host_seconds                                 17443.81                       # Real time elapsed on the host
host_tick_rate                               31098662                       # Simulator tick rate (ticks/s)
sim_freq                                 1000000000000                       # Frequency of simulated ticks
sim_insts                                   959949209                       # Number of instructions simulated
sim_ops                                    1713477399                       # Number of ops (including micro ops) simulated
sim_seconds                                  0.542479                       # Number of seconds simulated
sim_ticks                                542479043934                       # Number of ticks simulated
system.cpu0.Branches                                1                       # Number of branches fetched
system.cpu0.committedInsts                         13                       # Number of instructions committed
system.cpu0.committedOps                           27                       # Number of ops (including micro ops) committed
system.cpu0.idle_fraction                           0                       # Percentage of idle cycles
system.cpu0.l2bus.snoop_filter.hit_multi_requests           19                       # Number of requests hitting in the snoop filter with multiple (>1) holders of the requested data.
system.cpu0.l2bus.snoop_filter.hit_multi_snoops            0                       # Number of snoops hitting in the snoop filter with multiple (>1) holders of the requested data.
system.cpu0.l2bus.snoop_filter.hit_single_requests     12226966                       # Number of requests hitting in the snoop filter with a single holder of the requested data.
system.cpu0.l2bus.snoop_filter.hit_single_snoops         3568                       # Number of snoops hitting in the snoop filter with a single holder of the requested data.
system.cpu0.l2bus.snoop_filter.tot_requests     24450913                       # Total number of requests made to the snoop filter.
system.cpu0.l2bus.snoop_filter.tot_snoops         3568                       # Total number of snoops made to the snoop filter.
system.cpu0.mmucache.mmubus.snoop_filter.hit_multi_requests            0                       # Number of requests hitting in the snoop filter with multiple (>1) holders of the requested data.
system.cpu0.mmucache.mmubus.snoop_filter.hit_multi_snoops            0                       # Number of snoops hitting in the snoop filter with multiple (>1) holders of the requested data.
system.cpu0.mmucache.mmubus.snoop_filter.hit_single_requests            0                       # Number of requests hitting in the snoop filter with a single holder of the requested data.
system.cpu0.mmucache.mmubus.snoop_filter.hit_single_snoops            0                       # Number of snoops hitting in the snoop filter with a single holder of the requested data.
system.cpu0.mmucache.mmubus.snoop_filter.tot_requests            0                       # Total number of requests made to the snoop filter.
system.cpu0.mmucache.mmubus.snoop_filter.tot_snoops            0                       # Total number of snoops made to the snoop filter.
system.cpu0.not_idle_fraction                       1                       # Percentage of non-idle cycles
system.cpu0.numCycles                              33                       # number of cpu cycles simulated
system.cpu0.numWorkItemsCompleted                   0                       # number of work items this cpu completed
system.cpu0.numWorkItemsStarted                     0                       # number of work items this cpu started
system.cpu0.num_busy_cycles                        33                       # Number of busy cycles
system.cpu0.num_cc_register_reads                   5                       # number of times the CC registers were read
system.cpu0.num_conditional_control_insts            1                       # number of instructions that are conditional controls
system.cpu0.num_fp_alu_accesses                    24                       # Number of float alu accesses
system.cpu0.num_fp_insts                           24                       # number of float instructions
system.cpu0.num_fp_register_reads                  28                       # number of times the floating registers were read
system.cpu0.num_fp_register_writes                 24                       # number of times the floating registers were written
system.cpu0.num_func_calls                          0                       # number of times a function call or return occured
system.cpu0.num_idle_cycles                         0                       # Number of idle cycles
system.cpu0.num_int_alu_accesses                    7                       # Number of integer alu accesses
system.cpu0.num_int_insts                           7                       # number of integer instructions
system.cpu0.num_int_register_reads                 16                       # number of times the integer registers were read
system.cpu0.num_int_register_writes                 2                       # number of times the integer registers were written
system.cpu0.num_load_insts                          4                       # Number of load instructions
system.cpu0.num_mem_refs                            4                       # number of memory refs
system.cpu0.num_store_insts                         0                       # Number of store instructions
system.cpu0.num_vec_alu_accesses                    0                       # Number of vector alu accesses
system.cpu0.num_vec_insts                           0                       # number of vector instructions
system.cpu0.num_vec_register_reads                  0                       # number of times the vector registers were read
system.cpu0.num_vec_register_writes                 0                       # number of times the vector registers were written
system.cpu0.op_class::No_OpClass                    0      0.00%      0.00% # Class of executed instruction
system.cpu0.op_class::IntAlu                       11     40.74%     40.74% # Class of executed instruction
system.cpu0.op_class::IntMult                       0      0.00%     40.74% # Class of executed instruction
system.cpu0.op_class::IntDiv                        0      0.00%     40.74% # Class of executed instruction
system.cpu0.op_class::FloatAdd                      8     29.63%     70.37% # Class of executed instruction
system.cpu0.op_class::FloatCmp                      0      0.00%     70.37% # Class of executed instruction
system.cpu0.op_class::FloatCvt                      0      0.00%     70.37% # Class of executed instruction
system.cpu0.op_class::FloatMult                     0      0.00%     70.37% # Class of executed instruction
system.cpu0.op_class::FloatMultAcc                  0      0.00%     70.37% # Class of executed instruction
system.cpu0.op_class::FloatDiv                      0      0.00%     70.37% # Class of executed instruction
system.cpu0.op_class::FloatMisc                     0      0.00%     70.37% # Class of executed instruction
system.cpu0.op_class::FloatSqrt                     0      0.00%     70.37% # Class of executed instruction
system.cpu0.op_class::SimdAdd                       0      0.00%     70.37% # Class of executed instruction
system.cpu0.op_class::SimdAddAcc                    0      0.00%     70.37% # Class of executed instruction
system.cpu0.op_class::SimdAlu                       0      0.00%     70.37% # Class of executed instruction
system.cpu0.op_class::SimdCmp                       0      0.00%     70.37% # Class of executed instruction
system.cpu0.op_class::SimdCvt                       0      0.00%     70.37% # Class of executed instruction
system.cpu0.op_class::SimdMisc                      0      0.00%     70.37% # Class of executed instruction
system.cpu0.op_class::SimdMult                      0      0.00%     70.37% # Class of executed instruction
system.cpu0.op_class::SimdMultAcc                   0      0.00%     70.37% # Class of executed instruction
system.cpu0.op_class::SimdShift                     0      0.00%     70.37% # Class of executed instruction
system.cpu0.op_class::SimdShiftAcc                  0      0.00%     70.37% # Class of executed instruction
system.cpu0.op_class::SimdDiv                       0      0.00%     70.37% # Class of executed instruction
system.cpu0.op_class::SimdSqrt                      0      0.00%     70.37% # Class of executed instruction
system.cpu0.op_class::SimdFloatAdd                  0      0.00%     70.37% # Class of executed instruction
system.cpu0.op_class::SimdFloatAlu                  0      0.00%     70.37% # Class of executed instruction
system.cpu0.op_class::SimdFloatCmp                  4     14.81%     85.19% # Class of executed instruction
system.cpu0.op_class::SimdFloatCvt                  0      0.00%     85.19% # Class of executed instruction
system.cpu0.op_class::SimdFloatDiv                  0      0.00%     85.19% # Class of executed instruction
system.cpu0.op_class::SimdFloatMisc                 0      0.00%     85.19% # Class of executed instruction
system.cpu0.op_class::SimdFloatMult                 0      0.00%     85.19% # Class of executed instruction
system.cpu0.op_class::SimdFloatMultAcc              0      0.00%     85.19% # Class of executed instruction
system.cpu0.op_class::SimdFloatSqrt                 0      0.00%     85.19% # Class of executed instruction
system.cpu0.op_class::SimdReduceAdd                 0      0.00%     85.19% # Class of executed instruction
system.cpu0.op_class::SimdReduceAlu                 0      0.00%     85.19% # Class of executed instruction
system.cpu0.op_class::SimdReduceCmp                 0      0.00%     85.19% # Class of executed instruction
system.cpu0.op_class::SimdFloatReduceAdd            0      0.00%     85.19% # Class of executed instruction
system.cpu0.op_class::SimdFloatReduceCmp            0      0.00%     85.19% # Class of executed instruction
system.cpu0.op_class::SimdAes                       0      0.00%     85.19% # Class of executed instruction
system.cpu0.op_class::SimdAesMix                    0      0.00%     85.19% # Class of executed instruction
system.cpu0.op_class::SimdSha1Hash                  0      0.00%     85.19% # Class of executed instruction
system.cpu0.op_class::SimdSha1Hash2                 0      0.00%     85.19% # Class of executed instruction
system.cpu0.op_class::SimdSha256Hash                0      0.00%     85.19% # Class of executed instruction
system.cpu0.op_class::SimdSha256Hash2               0      0.00%     85.19% # Class of executed instruction
system.cpu0.op_class::SimdShaSigma2                 0      0.00%     85.19% # Class of executed instruction
system.cpu0.op_class::SimdShaSigma3                 0      0.00%     85.19% # Class of executed instruction
system.cpu0.op_class::SimdPredAlu                   0      0.00%     85.19% # Class of executed instruction
system.cpu0.op_class::MemRead                       0      0.00%     85.19% # Class of executed instruction
system.cpu0.op_class::MemWrite                      0      0.00%     85.19% # Class of executed instruction
system.cpu0.op_class::FloatMemRead                  4     14.81%    100.00% # Class of executed instruction
system.cpu0.op_class::FloatMemWrite                 0      0.00%    100.00% # Class of executed instruction
system.cpu0.op_class::IprAccess                     0      0.00%    100.00% # Class of executed instruction
system.cpu0.op_class::InstPrefetch                  0      0.00%    100.00% # Class of executed instruction
system.cpu0.op_class::total                        27                       # Class of executed instruction
system.cpu0.workload.numSyscalls                    0                       # Number of system calls
system.cpu1.Branches                                1                       # Number of branches fetched
system.cpu1.committedInsts                         16                       # Number of instructions committed
system.cpu1.committedOps                           23                       # Number of ops (including micro ops) committed
system.cpu1.idle_fraction                           0                       # Percentage of idle cycles
system.cpu1.l2bus.snoop_filter.hit_multi_requests           11                       # Number of requests hitting in the snoop filter with multiple (>1) holders of the requested data.
system.cpu1.l2bus.snoop_filter.hit_multi_snoops            0                       # Number of snoops hitting in the snoop filter with multiple (>1) holders of the requested data.
system.cpu1.l2bus.snoop_filter.hit_single_requests     11984314                       # Number of requests hitting in the snoop filter with a single holder of the requested data.
system.cpu1.l2bus.snoop_filter.hit_single_snoops      5238912                       # Number of snoops hitting in the snoop filter with a single holder of the requested data.
system.cpu1.l2bus.snoop_filter.tot_requests     23965205                       # Total number of requests made to the snoop filter.
system.cpu1.l2bus.snoop_filter.tot_snoops      5238912                       # Total number of snoops made to the snoop filter.
system.cpu1.mmucache.mmubus.snoop_filter.hit_multi_requests            0                       # Number of requests hitting in the snoop filter with multiple (>1) holders of the requested data.
system.cpu1.mmucache.mmubus.snoop_filter.hit_multi_snoops            0                       # Number of snoops hitting in the snoop filter with multiple (>1) holders of the requested data.
system.cpu1.mmucache.mmubus.snoop_filter.hit_single_requests            0                       # Number of requests hitting in the snoop filter with a single holder of the requested data.
system.cpu1.mmucache.mmubus.snoop_filter.hit_single_snoops            0                       # Number of snoops hitting in the snoop filter with a single holder of the requested data.
system.cpu1.mmucache.mmubus.snoop_filter.tot_requests            0                       # Total number of requests made to the snoop filter.
system.cpu1.mmucache.mmubus.snoop_filter.tot_snoops            0                       # Total number of snoops made to the snoop filter.
system.cpu1.not_idle_fraction                       1                       # Percentage of non-idle cycles
system.cpu1.numCycles                              31                       # number of cpu cycles simulated
system.cpu1.numWorkItemsCompleted                   0                       # number of work items this cpu completed
system.cpu1.numWorkItemsStarted                     0                       # number of work items this cpu started
system.cpu1.num_busy_cycles                        31                       # Number of busy cycles
system.cpu1.num_cc_register_reads                   7                       # number of times the CC registers were read
system.cpu1.num_cc_register_writes                  2                       # number of times the CC registers were written
system.cpu1.num_conditional_control_insts            1                       # number of instructions that are conditional controls
system.cpu1.num_fp_alu_accesses                    20                       # Number of float alu accesses
system.cpu1.num_fp_insts                           20                       # number of float instructions
system.cpu1.num_fp_register_reads                  43                       # number of times the floating registers were read
system.cpu1.num_fp_register_writes                 19                       # number of times the floating registers were written
system.cpu1.num_func_calls                          0                       # number of times a function call or return occured
system.cpu1.num_idle_cycles                         0                       # Number of idle cycles
system.cpu1.num_int_alu_accesses                    5                       # Number of integer alu accesses
system.cpu1.num_int_insts                           5                       # number of integer instructions
system.cpu1.num_int_register_reads                 10                       # number of times the integer registers were read
system.cpu1.num_int_register_writes                 2                       # number of times the integer registers were written
system.cpu1.num_load_insts                          2                       # Number of load instructions
system.cpu1.num_mem_refs                            2                       # number of memory refs
system.cpu1.num_store_insts                         0                       # Number of store instructions
system.cpu1.num_vec_alu_accesses                    0                       # Number of vector alu accesses
system.cpu1.num_vec_insts                           0                       # number of vector instructions
system.cpu1.num_vec_register_reads                  0                       # number of times the vector registers were read
system.cpu1.num_vec_register_writes                 0                       # number of times the vector registers were written
system.cpu1.op_class::No_OpClass                    0      0.00%      0.00% # Class of executed instruction
system.cpu1.op_class::IntAlu                        7     30.43%     30.43% # Class of executed instruction
system.cpu1.op_class::IntMult                       0      0.00%     30.43% # Class of executed instruction
system.cpu1.op_class::IntDiv                        0      0.00%     30.43% # Class of executed instruction
system.cpu1.op_class::FloatAdd                      2      8.70%     39.13% # Class of executed instruction
system.cpu1.op_class::FloatCmp                      0      0.00%     39.13% # Class of executed instruction
system.cpu1.op_class::FloatCvt                      0      0.00%     39.13% # Class of executed instruction
system.cpu1.op_class::FloatMult                     0      0.00%     39.13% # Class of executed instruction
system.cpu1.op_class::FloatMultAcc                  0      0.00%     39.13% # Class of executed instruction
system.cpu1.op_class::FloatDiv                      0      0.00%     39.13% # Class of executed instruction
system.cpu1.op_class::FloatMisc                     0      0.00%     39.13% # Class of executed instruction
system.cpu1.op_class::FloatSqrt                     0      0.00%     39.13% # Class of executed instruction
system.cpu1.op_class::SimdAdd                       0      0.00%     39.13% # Class of executed instruction
system.cpu1.op_class::SimdAddAcc                    0      0.00%     39.13% # Class of executed instruction
system.cpu1.op_class::SimdAlu                       0      0.00%     39.13% # Class of executed instruction
system.cpu1.op_class::SimdCmp                       0      0.00%     39.13% # Class of executed instruction
system.cpu1.op_class::SimdCvt                       0      0.00%     39.13% # Class of executed instruction
system.cpu1.op_class::SimdMisc                      0      0.00%     39.13% # Class of executed instruction
system.cpu1.op_class::SimdMult                      0      0.00%     39.13% # Class of executed instruction
system.cpu1.op_class::SimdMultAcc                   0      0.00%     39.13% # Class of executed instruction
system.cpu1.op_class::SimdShift                     0      0.00%     39.13% # Class of executed instruction
system.cpu1.op_class::SimdShiftAcc                  0      0.00%     39.13% # Class of executed instruction
system.cpu1.op_class::SimdDiv                       0      0.00%     39.13% # Class of executed instruction
system.cpu1.op_class::SimdSqrt                      0      0.00%     39.13% # Class of executed instruction
system.cpu1.op_class::SimdFloatAdd                  5     21.74%     60.87% # Class of executed instruction
system.cpu1.op_class::SimdFloatAlu                  0      0.00%     60.87% # Class of executed instruction
system.cpu1.op_class::SimdFloatCmp                  1      4.35%     65.22% # Class of executed instruction
system.cpu1.op_class::SimdFloatCvt                  1      4.35%     69.57% # Class of executed instruction
system.cpu1.op_class::SimdFloatDiv                  0      0.00%     69.57% # Class of executed instruction
system.cpu1.op_class::SimdFloatMisc                 0      0.00%     69.57% # Class of executed instruction
system.cpu1.op_class::SimdFloatMult                 5     21.74%     91.30% # Class of executed instruction
system.cpu1.op_class::SimdFloatMultAcc              0      0.00%     91.30% # Class of executed instruction
system.cpu1.op_class::SimdFloatSqrt                 0      0.00%     91.30% # Class of executed instruction
system.cpu1.op_class::SimdReduceAdd                 0      0.00%     91.30% # Class of executed instruction
system.cpu1.op_class::SimdReduceAlu                 0      0.00%     91.30% # Class of executed instruction
system.cpu1.op_class::SimdReduceCmp                 0      0.00%     91.30% # Class of executed instruction
system.cpu1.op_class::SimdFloatReduceAdd            0      0.00%     91.30% # Class of executed instruction
system.cpu1.op_class::SimdFloatReduceCmp            0      0.00%     91.30% # Class of executed instruction
system.cpu1.op_class::SimdAes                       0      0.00%     91.30% # Class of executed instruction
system.cpu1.op_class::SimdAesMix                    0      0.00%     91.30% # Class of executed instruction
system.cpu1.op_class::SimdSha1Hash                  0      0.00%     91.30% # Class of executed instruction
system.cpu1.op_class::SimdSha1Hash2                 0      0.00%     91.30% # Class of executed instruction
system.cpu1.op_class::SimdSha256Hash                0      0.00%     91.30% # Class of executed instruction
system.cpu1.op_class::SimdSha256Hash2               0      0.00%     91.30% # Class of executed instruction
system.cpu1.op_class::SimdShaSigma2                 0      0.00%     91.30% # Class of executed instruction
system.cpu1.op_class::SimdShaSigma3                 0      0.00%     91.30% # Class of executed instruction
system.cpu1.op_class::SimdPredAlu                   0      0.00%     91.30% # Class of executed instruction
system.cpu1.op_class::MemRead                       0      0.00%     91.30% # Class of executed instruction
system.cpu1.op_class::MemWrite                      0      0.00%     91.30% # Class of executed instruction
system.cpu1.op_class::FloatMemRead                  2      8.70%    100.00% # Class of executed instruction
system.cpu1.op_class::FloatMemWrite                 0      0.00%    100.00% # Class of executed instruction
system.cpu1.op_class::IprAccess                     0      0.00%    100.00% # Class of executed instruction
system.cpu1.op_class::InstPrefetch                  0      0.00%    100.00% # Class of executed instruction
system.cpu1.op_class::total                        23                       # Class of executed instruction
system.cpu1.workload.numSyscalls                    0                       # Number of system calls
system.cpu2.Branches                                1                       # Number of branches fetched
system.cpu2.committedInsts                         13                       # Number of instructions committed
system.cpu2.committedOps                           27                       # Number of ops (including micro ops) committed
system.cpu2.idle_fraction                           0                       # Percentage of idle cycles
system.cpu2.l2bus.snoop_filter.hit_multi_requests           16                       # Number of requests hitting in the snoop filter with multiple (>1) holders of the requested data.
system.cpu2.l2bus.snoop_filter.hit_multi_snoops            0                       # Number of snoops hitting in the snoop filter with multiple (>1) holders of the requested data.
system.cpu2.l2bus.snoop_filter.hit_single_requests     12234978                       # Number of requests hitting in the snoop filter with a single holder of the requested data.
system.cpu2.l2bus.snoop_filter.hit_single_snoops         3482                       # Number of snoops hitting in the snoop filter with a single holder of the requested data.
system.cpu2.l2bus.snoop_filter.tot_requests     24467205                       # Total number of requests made to the snoop filter.
system.cpu2.l2bus.snoop_filter.tot_snoops         3482                       # Total number of snoops made to the snoop filter.
system.cpu2.mmucache.mmubus.snoop_filter.hit_multi_requests            0                       # Number of requests hitting in the snoop filter with multiple (>1) holders of the requested data.
system.cpu2.mmucache.mmubus.snoop_filter.hit_multi_snoops            0                       # Number of snoops hitting in the snoop filter with multiple (>1) holders of the requested data.
system.cpu2.mmucache.mmubus.snoop_filter.hit_single_requests            0                       # Number of requests hitting in the snoop filter with a single holder of the requested data.
system.cpu2.mmucache.mmubus.snoop_filter.hit_single_snoops            0                       # Number of snoops hitting in the snoop filter with a single holder of the requested data.
system.cpu2.mmucache.mmubus.snoop_filter.tot_requests            0                       # Total number of requests made to the snoop filter.
system.cpu2.mmucache.mmubus.snoop_filter.tot_snoops            0                       # Total number of snoops made to the snoop filter.
system.cpu2.not_idle_fraction                       1                       # Percentage of non-idle cycles
system.cpu2.numCycles                              33                       # number of cpu cycles simulated
system.cpu2.numWorkItemsCompleted                   0                       # number of work items this cpu completed
system.cpu2.numWorkItemsStarted                     0                       # number of work items this cpu started
system.cpu2.num_busy_cycles                        33                       # Number of busy cycles
system.cpu2.num_cc_register_reads                   5                       # number of times the CC registers were read
system.cpu2.num_conditional_control_insts            1                       # number of instructions that are conditional controls
system.cpu2.num_fp_alu_accesses                    24                       # Number of float alu accesses
system.cpu2.num_fp_insts                           24                       # number of float instructions
system.cpu2.num_fp_register_reads                  28                       # number of times the floating registers were read
system.cpu2.num_fp_register_writes                 24                       # number of times the floating registers were written
system.cpu2.num_func_calls                          0                       # number of times a function call or return occured
system.cpu2.num_idle_cycles                         0                       # Number of idle cycles
system.cpu2.num_int_alu_accesses                    7                       # Number of integer alu accesses
system.cpu2.num_int_insts                           7                       # number of integer instructions
system.cpu2.num_int_register_reads                 16                       # number of times the integer registers were read
system.cpu2.num_int_register_writes                 2                       # number of times the integer registers were written
system.cpu2.num_load_insts                          4                       # Number of load instructions
system.cpu2.num_mem_refs                            4                       # number of memory refs
system.cpu2.num_store_insts                         0                       # Number of store instructions
system.cpu2.num_vec_alu_accesses                    0                       # Number of vector alu accesses
system.cpu2.num_vec_insts                           0                       # number of vector instructions
system.cpu2.num_vec_register_reads                  0                       # number of times the vector registers were read
system.cpu2.num_vec_register_writes                 0                       # number of times the vector registers were written
system.cpu2.op_class::No_OpClass                    0      0.00%      0.00% # Class of executed instruction
system.cpu2.op_class::IntAlu                       11     40.74%     40.74% # Class of executed instruction
system.cpu2.op_class::IntMult                       0      0.00%     40.74% # Class of executed instruction
system.cpu2.op_class::IntDiv                        0      0.00%     40.74% # Class of executed instruction
system.cpu2.op_class::FloatAdd                      8     29.63%     70.37% # Class of executed instruction
system.cpu2.op_class::FloatCmp                      0      0.00%     70.37% # Class of executed instruction
system.cpu2.op_class::FloatCvt                      0      0.00%     70.37% # Class of executed instruction
system.cpu2.op_class::FloatMult                     0      0.00%     70.37% # Class of executed instruction
system.cpu2.op_class::FloatMultAcc                  0      0.00%     70.37% # Class of executed instruction
system.cpu2.op_class::FloatDiv                      0      0.00%     70.37% # Class of executed instruction
system.cpu2.op_class::FloatMisc                     0      0.00%     70.37% # Class of executed instruction
system.cpu2.op_class::FloatSqrt                     0      0.00%     70.37% # Class of executed instruction
system.cpu2.op_class::SimdAdd                       0      0.00%     70.37% # Class of executed instruction
system.cpu2.op_class::SimdAddAcc                    0      0.00%     70.37% # Class of executed instruction
system.cpu2.op_class::SimdAlu                       0      0.00%     70.37% # Class of executed instruction
system.cpu2.op_class::SimdCmp                       0      0.00%     70.37% # Class of executed instruction
system.cpu2.op_class::SimdCvt                       0      0.00%     70.37% # Class of executed instruction
system.cpu2.op_class::SimdMisc                      0      0.00%     70.37% # Class of executed instruction
system.cpu2.op_class::SimdMult                      0      0.00%     70.37% # Class of executed instruction
system.cpu2.op_class::SimdMultAcc                   0      0.00%     70.37% # Class of executed instruction
system.cpu2.op_class::SimdShift                     0      0.00%     70.37% # Class of executed instruction
system.cpu2.op_class::SimdShiftAcc                  0      0.00%     70.37% # Class of executed instruction
system.cpu2.op_class::SimdDiv                       0      0.00%     70.37% # Class of executed instruction
system.cpu2.op_class::SimdSqrt                      0      0.00%     70.37% # Class of executed instruction
system.cpu2.op_class::SimdFloatAdd                  0      0.00%     70.37% # Class of executed instruction
system.cpu2.op_class::SimdFloatAlu                  0      0.00%     70.37% # Class of executed instruction
system.cpu2.op_class::SimdFloatCmp                  4     14.81%     85.19% # Class of executed instruction
system.cpu2.op_class::SimdFloatCvt                  0      0.00%     85.19% # Class of executed instruction
system.cpu2.op_class::SimdFloatDiv                  0      0.00%     85.19% # Class of executed instruction
system.cpu2.op_class::SimdFloatMisc                 0      0.00%     85.19% # Class of executed instruction
system.cpu2.op_class::SimdFloatMult                 0      0.00%     85.19% # Class of executed instruction
system.cpu2.op_class::SimdFloatMultAcc              0      0.00%     85.19% # Class of executed instruction
system.cpu2.op_class::SimdFloatSqrt                 0      0.00%     85.19% # Class of executed instruction
system.cpu2.op_class::SimdReduceAdd                 0      0.00%     85.19% # Class of executed instruction
system.cpu2.op_class::SimdReduceAlu                 0      0.00%     85.19% # Class of executed instruction
system.cpu2.op_class::SimdReduceCmp                 0      0.00%     85.19% # Class of executed instruction
system.cpu2.op_class::SimdFloatReduceAdd            0      0.00%     85.19% # Class of executed instruction
system.cpu2.op_class::SimdFloatReduceCmp            0      0.00%     85.19% # Class of executed instruction
system.cpu2.op_class::SimdAes                       0      0.00%     85.19% # Class of executed instruction
system.cpu2.op_class::SimdAesMix                    0      0.00%     85.19% # Class of executed instruction
system.cpu2.op_class::SimdSha1Hash                  0      0.00%     85.19% # Class of executed instruction
system.cpu2.op_class::SimdSha1Hash2                 0      0.00%     85.19% # Class of executed instruction
system.cpu2.op_class::SimdSha256Hash                0      0.00%     85.19% # Class of executed instruction
system.cpu2.op_class::SimdSha256Hash2               0      0.00%     85.19% # Class of executed instruction
system.cpu2.op_class::SimdShaSigma2                 0      0.00%     85.19% # Class of executed instruction
system.cpu2.op_class::SimdShaSigma3                 0      0.00%     85.19% # Class of executed instruction
system.cpu2.op_class::SimdPredAlu                   0      0.00%     85.19% # Class of executed instruction
system.cpu2.op_class::MemRead                       0      0.00%     85.19% # Class of executed instruction
system.cpu2.op_class::MemWrite                      0      0.00%     85.19% # Class of executed instruction
system.cpu2.op_class::FloatMemRead                  4     14.81%    100.00% # Class of executed instruction
system.cpu2.op_class::FloatMemWrite                 0      0.00%    100.00% # Class of executed instruction
system.cpu2.op_class::IprAccess                     0      0.00%    100.00% # Class of executed instruction
system.cpu2.op_class::InstPrefetch                  0      0.00%    100.00% # Class of executed instruction
system.cpu2.op_class::total                        27                       # Class of executed instruction
system.cpu2.workload.numSyscalls                    0                       # Number of system calls
system.cpu3.committedInsts                         15                       # Number of instructions committed
system.cpu3.committedOps                           24                       # Number of ops (including micro ops) committed
system.cpu3.idle_fraction                           0                       # Percentage of idle cycles
system.cpu3.l2bus.snoop_filter.hit_multi_requests           10                       # Number of requests hitting in the snoop filter with multiple (>1) holders of the requested data.
system.cpu3.l2bus.snoop_filter.hit_multi_snoops            1                       # Number of snoops hitting in the snoop filter with multiple (>1) holders of the requested data.
system.cpu3.l2bus.snoop_filter.hit_single_requests     11969613                       # Number of requests hitting in the snoop filter with a single holder of the requested data.
system.cpu3.l2bus.snoop_filter.hit_single_snoops      5237141                       # Number of snoops hitting in the snoop filter with a single holder of the requested data.
system.cpu3.l2bus.snoop_filter.tot_requests     23936142                       # Total number of requests made to the snoop filter.
system.cpu3.l2bus.snoop_filter.tot_snoops      5237142                       # Total number of snoops made to the snoop filter.
system.cpu3.mmucache.mmubus.snoop_filter.hit_multi_requests            0                       # Number of requests hitting in the snoop filter with multiple (>1) holders of the requested data.
system.cpu3.mmucache.mmubus.snoop_filter.hit_multi_snoops            0                       # Number of snoops hitting in the snoop filter with multiple (>1) holders of the requested data.
system.cpu3.mmucache.mmubus.snoop_filter.hit_single_requests            0                       # Number of requests hitting in the snoop filter with a single holder of the requested data.
system.cpu3.mmucache.mmubus.snoop_filter.hit_single_snoops            0                       # Number of snoops hitting in the snoop filter with a single holder of the requested data.
system.cpu3.mmucache.mmubus.snoop_filter.tot_requests            0                       # Total number of requests made to the snoop filter.
system.cpu3.mmucache.mmubus.snoop_filter.tot_snoops            0                       # Total number of snoops made to the snoop filter.
system.cpu3.not_idle_fraction                       1                       # Percentage of non-idle cycles
system.cpu3.numCycles                              31                       # number of cpu cycles simulated
system.cpu3.numWorkItemsCompleted                   0                       # number of work items this cpu completed
system.cpu3.numWorkItemsStarted                     0                       # number of work items this cpu started
system.cpu3.num_busy_cycles                        31                       # Number of busy cycles
system.cpu3.num_cc_register_reads                   2                       # number of times the CC registers were read
system.cpu3.num_cc_register_writes                  2                       # number of times the CC registers were written
system.cpu3.num_conditional_control_insts            0                       # number of instructions that are conditional controls
system.cpu3.num_fp_alu_accesses                    24                       # Number of float alu accesses
system.cpu3.num_fp_insts                           24                       # number of float instructions
system.cpu3.num_fp_register_reads                  40                       # number of times the floating registers were read
system.cpu3.num_fp_register_writes                 23                       # number of times the floating registers were written
system.cpu3.num_func_calls                          0                       # number of times a function call or return occured
system.cpu3.num_idle_cycles                         0                       # Number of idle cycles
system.cpu3.num_int_alu_accesses                    5                       # Number of integer alu accesses
system.cpu3.num_int_insts                           5                       # number of integer instructions
system.cpu3.num_int_register_reads                 15                       # number of times the integer registers were read
system.cpu3.num_int_register_writes                 0                       # number of times the integer registers were written
system.cpu3.num_load_insts                          5                       # Number of load instructions
system.cpu3.num_mem_refs                            5                       # number of memory refs
system.cpu3.num_store_insts                         0                       # Number of store instructions
system.cpu3.num_vec_alu_accesses                    0                       # Number of vector alu accesses
system.cpu3.num_vec_insts                           0                       # number of vector instructions
system.cpu3.num_vec_register_reads                  0                       # number of times the vector registers were read
system.cpu3.num_vec_register_writes                 0                       # number of times the vector registers were written
system.cpu3.op_class::No_OpClass                    0      0.00%      0.00% # Class of executed instruction
system.cpu3.op_class::IntAlu                        4     16.67%     16.67% # Class of executed instruction
system.cpu3.op_class::IntMult                       0      0.00%     16.67% # Class of executed instruction
system.cpu3.op_class::IntDiv                        0      0.00%     16.67% # Class of executed instruction
system.cpu3.op_class::FloatAdd                      4     16.67%     33.33% # Class of executed instruction
system.cpu3.op_class::FloatCmp                      0      0.00%     33.33% # Class of executed instruction
system.cpu3.op_class::FloatCvt                      0      0.00%     33.33% # Class of executed instruction
system.cpu3.op_class::FloatMult                     0      0.00%     33.33% # Class of executed instruction
system.cpu3.op_class::FloatMultAcc                  0      0.00%     33.33% # Class of executed instruction
system.cpu3.op_class::FloatDiv                      0      0.00%     33.33% # Class of executed instruction
system.cpu3.op_class::FloatMisc                     0      0.00%     33.33% # Class of executed instruction
system.cpu3.op_class::FloatSqrt                     0      0.00%     33.33% # Class of executed instruction
system.cpu3.op_class::SimdAdd                       0      0.00%     33.33% # Class of executed instruction
system.cpu3.op_class::SimdAddAcc                    0      0.00%     33.33% # Class of executed instruction
system.cpu3.op_class::SimdAlu                       0      0.00%     33.33% # Class of executed instruction
system.cpu3.op_class::SimdCmp                       0      0.00%     33.33% # Class of executed instruction
system.cpu3.op_class::SimdCvt                       0      0.00%     33.33% # Class of executed instruction
system.cpu3.op_class::SimdMisc                      0      0.00%     33.33% # Class of executed instruction
system.cpu3.op_class::SimdMult                      0      0.00%     33.33% # Class of executed instruction
system.cpu3.op_class::SimdMultAcc                   0      0.00%     33.33% # Class of executed instruction
system.cpu3.op_class::SimdShift                     0      0.00%     33.33% # Class of executed instruction
system.cpu3.op_class::SimdShiftAcc                  0      0.00%     33.33% # Class of executed instruction
system.cpu3.op_class::SimdDiv                       0      0.00%     33.33% # Class of executed instruction
system.cpu3.op_class::SimdSqrt                      0      0.00%     33.33% # Class of executed instruction
system.cpu3.op_class::SimdFloatAdd                  6     25.00%     58.33% # Class of executed instruction
system.cpu3.op_class::SimdFloatAlu                  0      0.00%     58.33% # Class of executed instruction
system.cpu3.op_class::SimdFloatCmp                  1      4.17%     62.50% # Class of executed instruction
system.cpu3.op_class::SimdFloatCvt                  1      4.17%     66.67% # Class of executed instruction
system.cpu3.op_class::SimdFloatDiv                  0      0.00%     66.67% # Class of executed instruction
system.cpu3.op_class::SimdFloatMisc                 0      0.00%     66.67% # Class of executed instruction
system.cpu3.op_class::SimdFloatMult                 3     12.50%     79.17% # Class of executed instruction
system.cpu3.op_class::SimdFloatMultAcc              0      0.00%     79.17% # Class of executed instruction
system.cpu3.op_class::SimdFloatSqrt                 0      0.00%     79.17% # Class of executed instruction
system.cpu3.op_class::SimdReduceAdd                 0      0.00%     79.17% # Class of executed instruction
system.cpu3.op_class::SimdReduceAlu                 0      0.00%     79.17% # Class of executed instruction
system.cpu3.op_class::SimdReduceCmp                 0      0.00%     79.17% # Class of executed instruction
system.cpu3.op_class::SimdFloatReduceAdd            0      0.00%     79.17% # Class of executed instruction
system.cpu3.op_class::SimdFloatReduceCmp            0      0.00%     79.17% # Class of executed instruction
system.cpu3.op_class::SimdAes                       0      0.00%     79.17% # Class of executed instruction
system.cpu3.op_class::SimdAesMix                    0      0.00%     79.17% # Class of executed instruction
system.cpu3.op_class::SimdSha1Hash                  0      0.00%     79.17% # Class of executed instruction
system.cpu3.op_class::SimdSha1Hash2                 0      0.00%     79.17% # Class of executed instruction
system.cpu3.op_class::SimdSha256Hash                0      0.00%     79.17% # Class of executed instruction
system.cpu3.op_class::SimdSha256Hash2               0      0.00%     79.17% # Class of executed instruction
system.cpu3.op_class::SimdShaSigma2                 0      0.00%     79.17% # Class of executed instruction
system.cpu3.op_class::SimdShaSigma3                 0      0.00%     79.17% # Class of executed instruction
system.cpu3.op_class::SimdPredAlu                   0      0.00%     79.17% # Class of executed instruction
system.cpu3.op_class::MemRead                       0      0.00%     79.17% # Class of executed instruction
system.cpu3.op_class::MemWrite                      0      0.00%     79.17% # Class of executed instruction
system.cpu3.op_class::FloatMemRead                  5     20.83%    100.00% # Class of executed instruction
system.cpu3.op_class::FloatMemWrite                 0      0.00%    100.00% # Class of executed instruction
system.cpu3.op_class::IprAccess                     0      0.00%    100.00% # Class of executed instruction
system.cpu3.op_class::InstPrefetch                  0      0.00%    100.00% # Class of executed instruction
system.cpu3.op_class::total                        24                       # Class of executed instruction
system.cpu3.workload.numSyscalls                    0                       # Number of system calls
system.l3bus.snoop_filter.hit_multi_requests            0                       # Number of requests hitting in the snoop filter with multiple (>1) holders of the requested data.
system.l3bus.snoop_filter.hit_multi_snoops            0                       # Number of snoops hitting in the snoop filter with multiple (>1) holders of the requested data.
system.l3bus.snoop_filter.hit_single_requests     42865064                       # Number of requests hitting in the snoop filter with a single holder of the requested data.
system.l3bus.snoop_filter.hit_single_snoops            0                       # Number of snoops hitting in the snoop filter with a single holder of the requested data.
system.l3bus.snoop_filter.tot_requests       85736082                       # Total number of requests made to the snoop filter.
system.l3bus.snoop_filter.tot_snoops                0                       # Total number of snoops made to the snoop filter.
system.membus.snoop_filter.hit_multi_requests            0                       # Number of requests hitting in the snoop filter with multiple (>1) holders of the requested data.
system.membus.snoop_filter.hit_multi_snoops            0                       # Number of snoops hitting in the snoop filter with multiple (>1) holders of the requested data.
system.membus.snoop_filter.hit_single_requests     34383785                       # Number of requests hitting in the snoop filter with a single holder of the requested data.
system.membus.snoop_filter.hit_single_snoops            0                       # Number of snoops hitting in the snoop filter with a single holder of the requested data.
system.membus.snoop_filter.tot_requests      68841799                       # Total number of requests made to the snoop filter.
system.membus.snoop_filter.tot_snoops               0                       # Total number of snoops made to the snoop filter.
system.switch_cpus0.cc_regfile_reads        200349625                       # number of cc regfile reads
system.switch_cpus0.cc_regfile_writes       124030736                       # number of cc regfile writes
system.switch_cpus0.committedInsts          249896914                       # Number of Instructions Simulated
system.switch_cpus0.committedOps            446808469                       # Number of Ops (including micro ops) Simulated
system.switch_cpus0.cpi                      6.518953                       # CPI: Cycles Per Instruction
system.switch_cpus0.cpi_total                6.518953                       # CPI: Total CPI of All Threads
system.switch_cpus0.fp_regfile_reads        381713944                       # number of floating regfile reads
system.switch_cpus0.fp_regfile_writes       287507640                       # number of floating regfile writes
system.switch_cpus0.idleCycles                  44858                       # Total number of cycles that the CPU has spent unscheduled due to idling
system.switch_cpus0.iew.branchMispredicts       652962                       # Number of branch mispredicts detected at execute
system.switch_cpus0.iew.exec_branches        29604539                       # Number of branches executed
system.switch_cpus0.iew.exec_nop                    0                       # number of nop insts executed
system.switch_cpus0.iew.exec_rate            0.369984                       # Inst execution rate
system.switch_cpus0.iew.exec_refs           187046685                       # number of memory reference insts executed
system.switch_cpus0.iew.exec_stores          65089564                       # Number of stores executed
system.switch_cpus0.iew.exec_swp                    0                       # number of swp insts executed
system.switch_cpus0.iew.iewBlockCycles      304803855                       # Number of cycles IEW is blocking
system.switch_cpus0.iew.iewDispLoadInsts    116198587                       # Number of dispatched load instructions
system.switch_cpus0.iew.iewDispNonSpecInsts          121                       # Number of dispatched non-speculative instructions
system.switch_cpus0.iew.iewDispSquashedInsts        10207                       # Number of squashed instructions skipped by dispatch
system.switch_cpus0.iew.iewDispStoreInsts     66658368                       # Number of dispatched store instructions
system.switch_cpus0.iew.iewDispatchedInsts    606804255                       # Number of instructions dispatched to IQ
system.switch_cpus0.iew.iewExecLoadInsts    121957121                       # Number of load instructions executed
system.switch_cpus0.iew.iewExecSquashedInsts      1376057                       # Number of squashed instructions skipped in execute
system.switch_cpus0.iew.iewExecutedInsts    602728036                       # Number of executed instructions
system.switch_cpus0.iew.iewIQFullEvents       1635932                       # Number of times the IQ has become full, causing a stall
system.switch_cpus0.iew.iewIdleCycles               0                       # Number of cycles IEW is idle
system.switch_cpus0.iew.iewLSQFullEvents    336771641                       # Number of times the LSQ has become full, causing a stall
system.switch_cpus0.iew.iewSquashCycles       1694034                       # Number of cycles IEW is squashing
system.switch_cpus0.iew.iewUnblockCycles    339310757                       # Number of cycles IEW is unblocking
system.switch_cpus0.iew.memOrderViolationEvents         7827                       # Number of memory order violations
system.switch_cpus0.iew.predictedNotTakenIncorrect       324340                       # Number of branches that were predicted not taken incorrectly
system.switch_cpus0.iew.predictedTakenIncorrect       328622                       # Number of branches that were predicted taken incorrectly
system.switch_cpus0.iew.wb_consumers        556868215                       # num instructions consuming a value
system.switch_cpus0.iew.wb_count            580071496                       # cumulative count of insts written-back
system.switch_cpus0.iew.wb_fanout            0.618717                       # average fanout of values written-back
system.switch_cpus0.iew.wb_producers        344543731                       # num instructions producing a value
system.switch_cpus0.iew.wb_rate              0.356076                       # insts written-back per cycle
system.switch_cpus0.iew.wb_sent             593215560                       # cumulative count of insts sent to commit
system.switch_cpus0.int_regfile_reads       595190878                       # number of integer regfile reads
system.switch_cpus0.int_regfile_writes      192385410                       # number of integer regfile writes
system.switch_cpus0.ipc                      0.153399                       # IPC: Instructions Per Cycle
system.switch_cpus0.ipc_total                0.153399                       # IPC: Total IPC of All Threads
system.switch_cpus0.iq.FU_type_0::No_OpClass     13174411      2.18%      2.18% # Type of FU issued
system.switch_cpus0.iq.FU_type_0::IntAlu    250774146     41.51%     43.69% # Type of FU issued
system.switch_cpus0.iq.FU_type_0::IntMult            0      0.00%     43.69% # Type of FU issued
system.switch_cpus0.iq.FU_type_0::IntDiv            0      0.00%     43.69% # Type of FU issued
system.switch_cpus0.iq.FU_type_0::FloatAdd     73627393     12.19%     55.88% # Type of FU issued
system.switch_cpus0.iq.FU_type_0::FloatCmp            0      0.00%     55.88% # Type of FU issued
system.switch_cpus0.iq.FU_type_0::FloatCvt            0      0.00%     55.88% # Type of FU issued
system.switch_cpus0.iq.FU_type_0::FloatMult            0      0.00%     55.88% # Type of FU issued
system.switch_cpus0.iq.FU_type_0::FloatMultAcc            0      0.00%     55.88% # Type of FU issued
system.switch_cpus0.iq.FU_type_0::FloatDiv            0      0.00%     55.88% # Type of FU issued
system.switch_cpus0.iq.FU_type_0::FloatMisc            0      0.00%     55.88% # Type of FU issued
system.switch_cpus0.iq.FU_type_0::FloatSqrt            0      0.00%     55.88% # Type of FU issued
system.switch_cpus0.iq.FU_type_0::SimdAdd            0      0.00%     55.88% # Type of FU issued
system.switch_cpus0.iq.FU_type_0::SimdAddAcc            0      0.00%     55.88% # Type of FU issued
system.switch_cpus0.iq.FU_type_0::SimdAlu        58189      0.01%     55.89% # Type of FU issued
system.switch_cpus0.iq.FU_type_0::SimdCmp            0      0.00%     55.89% # Type of FU issued
system.switch_cpus0.iq.FU_type_0::SimdCvt            0      0.00%     55.89% # Type of FU issued
system.switch_cpus0.iq.FU_type_0::SimdMisc            0      0.00%     55.89% # Type of FU issued
system.switch_cpus0.iq.FU_type_0::SimdMult            0      0.00%     55.89% # Type of FU issued
system.switch_cpus0.iq.FU_type_0::SimdMultAcc            0      0.00%     55.89% # Type of FU issued
system.switch_cpus0.iq.FU_type_0::SimdShift            0      0.00%     55.89% # Type of FU issued
system.switch_cpus0.iq.FU_type_0::SimdShiftAcc            0      0.00%     55.89% # Type of FU issued
system.switch_cpus0.iq.FU_type_0::SimdDiv            0      0.00%     55.89% # Type of FU issued
system.switch_cpus0.iq.FU_type_0::SimdSqrt            0      0.00%     55.89% # Type of FU issued
system.switch_cpus0.iq.FU_type_0::SimdFloatAdd     28709045      4.75%     60.64% # Type of FU issued
system.switch_cpus0.iq.FU_type_0::SimdFloatAlu            0      0.00%     60.64% # Type of FU issued
system.switch_cpus0.iq.FU_type_0::SimdFloatCmp     29648420      4.91%     65.55% # Type of FU issued
system.switch_cpus0.iq.FU_type_0::SimdFloatCvt      5712397      0.95%     66.50% # Type of FU issued
system.switch_cpus0.iq.FU_type_0::SimdFloatDiv            0      0.00%     66.50% # Type of FU issued
system.switch_cpus0.iq.FU_type_0::SimdFloatMisc            0      0.00%     66.50% # Type of FU issued
system.switch_cpus0.iq.FU_type_0::SimdFloatMult     15000074      2.48%     68.98% # Type of FU issued
system.switch_cpus0.iq.FU_type_0::SimdFloatMultAcc            0      0.00%     68.98% # Type of FU issued
system.switch_cpus0.iq.FU_type_0::SimdFloatSqrt            0      0.00%     68.98% # Type of FU issued
system.switch_cpus0.iq.FU_type_0::SimdReduceAdd            0      0.00%     68.98% # Type of FU issued
system.switch_cpus0.iq.FU_type_0::SimdReduceAlu            0      0.00%     68.98% # Type of FU issued
system.switch_cpus0.iq.FU_type_0::SimdReduceCmp            0      0.00%     68.98% # Type of FU issued
system.switch_cpus0.iq.FU_type_0::SimdFloatReduceAdd            0      0.00%     68.98% # Type of FU issued
system.switch_cpus0.iq.FU_type_0::SimdFloatReduceCmp            0      0.00%     68.98% # Type of FU issued
system.switch_cpus0.iq.FU_type_0::SimdAes            0      0.00%     68.98% # Type of FU issued
system.switch_cpus0.iq.FU_type_0::SimdAesMix            0      0.00%     68.98% # Type of FU issued
system.switch_cpus0.iq.FU_type_0::SimdSha1Hash            0      0.00%     68.98% # Type of FU issued
system.switch_cpus0.iq.FU_type_0::SimdSha1Hash2            0      0.00%     68.98% # Type of FU issued
system.switch_cpus0.iq.FU_type_0::SimdSha256Hash            0      0.00%     68.98% # Type of FU issued
system.switch_cpus0.iq.FU_type_0::SimdSha256Hash2            0      0.00%     68.98% # Type of FU issued
system.switch_cpus0.iq.FU_type_0::SimdShaSigma2            0      0.00%     68.98% # Type of FU issued
system.switch_cpus0.iq.FU_type_0::SimdShaSigma3            0      0.00%     68.98% # Type of FU issued
system.switch_cpus0.iq.FU_type_0::SimdPredAlu            0      0.00%     68.98% # Type of FU issued
system.switch_cpus0.iq.FU_type_0::MemRead     27278822      4.52%     73.49% # Type of FU issued
system.switch_cpus0.iq.FU_type_0::MemWrite     21732439      3.60%     77.09% # Type of FU issued
system.switch_cpus0.iq.FU_type_0::FloatMemRead     94927088     15.71%     92.81% # Type of FU issued
system.switch_cpus0.iq.FU_type_0::FloatMemWrite     43461675      7.19%    100.00% # Type of FU issued
system.switch_cpus0.iq.FU_type_0::IprAccess            0      0.00%    100.00% # Type of FU issued
system.switch_cpus0.iq.FU_type_0::InstPrefetch            0      0.00%    100.00% # Type of FU issued
system.switch_cpus0.iq.FU_type_0::total     604104099                       # Type of FU issued
system.switch_cpus0.iq.fp_alu_accesses      359279404                       # Number of floating point alu accesses
system.switch_cpus0.iq.fp_inst_queue_reads    703820739                       # Number of floating instruction queue reads
system.switch_cpus0.iq.fp_inst_queue_wakeup_accesses    336601254                       # Number of floating instruction queue wakeup accesses
system.switch_cpus0.iq.fp_inst_queue_writes    389213151                       # Number of floating instruction queue writes
system.switch_cpus0.iq.fu_busy_cnt           24748883                       # FU busy when requested
system.switch_cpus0.iq.fu_busy_rate          0.040968                       # FU busy rate (busy events/executed inst)
system.switch_cpus0.iq.fu_full::No_OpClass            0      0.00%      0.00% # attempts to use FU when none available
system.switch_cpus0.iq.fu_full::IntAlu        1259807      5.09%      5.09% # attempts to use FU when none available
system.switch_cpus0.iq.fu_full::IntMult             0      0.00%      5.09% # attempts to use FU when none available
system.switch_cpus0.iq.fu_full::IntDiv              0      0.00%      5.09% # attempts to use FU when none available
system.switch_cpus0.iq.fu_full::FloatAdd        23939      0.10%      5.19% # attempts to use FU when none available
system.switch_cpus0.iq.fu_full::FloatCmp            0      0.00%      5.19% # attempts to use FU when none available
system.switch_cpus0.iq.fu_full::FloatCvt            0      0.00%      5.19% # attempts to use FU when none available
system.switch_cpus0.iq.fu_full::FloatMult            0      0.00%      5.19% # attempts to use FU when none available
system.switch_cpus0.iq.fu_full::FloatMultAcc            0      0.00%      5.19% # attempts to use FU when none available
system.switch_cpus0.iq.fu_full::FloatDiv            0      0.00%      5.19% # attempts to use FU when none available
system.switch_cpus0.iq.fu_full::FloatMisc            0      0.00%      5.19% # attempts to use FU when none available
system.switch_cpus0.iq.fu_full::FloatSqrt            0      0.00%      5.19% # attempts to use FU when none available
system.switch_cpus0.iq.fu_full::SimdAdd             0      0.00%      5.19% # attempts to use FU when none available
system.switch_cpus0.iq.fu_full::SimdAddAcc            0      0.00%      5.19% # attempts to use FU when none available
system.switch_cpus0.iq.fu_full::SimdAlu             0      0.00%      5.19% # attempts to use FU when none available
system.switch_cpus0.iq.fu_full::SimdCmp             0      0.00%      5.19% # attempts to use FU when none available
system.switch_cpus0.iq.fu_full::SimdCvt             0      0.00%      5.19% # attempts to use FU when none available
system.switch_cpus0.iq.fu_full::SimdMisc            0      0.00%      5.19% # attempts to use FU when none available
system.switch_cpus0.iq.fu_full::SimdMult            0      0.00%      5.19% # attempts to use FU when none available
system.switch_cpus0.iq.fu_full::SimdMultAcc            0      0.00%      5.19% # attempts to use FU when none available
system.switch_cpus0.iq.fu_full::SimdShift            0      0.00%      5.19% # attempts to use FU when none available
system.switch_cpus0.iq.fu_full::SimdShiftAcc            0      0.00%      5.19% # attempts to use FU when none available
system.switch_cpus0.iq.fu_full::SimdDiv             0      0.00%      5.19% # attempts to use FU when none available
system.switch_cpus0.iq.fu_full::SimdSqrt            0      0.00%      5.19% # attempts to use FU when none available
system.switch_cpus0.iq.fu_full::SimdFloatAdd       214390      0.87%      6.05% # attempts to use FU when none available
system.switch_cpus0.iq.fu_full::SimdFloatAlu            0      0.00%      6.05% # attempts to use FU when none available
system.switch_cpus0.iq.fu_full::SimdFloatCmp       902270      3.65%      9.70% # attempts to use FU when none available
system.switch_cpus0.iq.fu_full::SimdFloatCvt            0      0.00%      9.70% # attempts to use FU when none available
system.switch_cpus0.iq.fu_full::SimdFloatDiv            0      0.00%      9.70% # attempts to use FU when none available
system.switch_cpus0.iq.fu_full::SimdFloatMisc            0      0.00%      9.70% # attempts to use FU when none available
system.switch_cpus0.iq.fu_full::SimdFloatMult        26453      0.11%      9.81% # attempts to use FU when none available
system.switch_cpus0.iq.fu_full::SimdFloatMultAcc            0      0.00%      9.81% # attempts to use FU when none available
system.switch_cpus0.iq.fu_full::SimdFloatSqrt            0      0.00%      9.81% # attempts to use FU when none available
system.switch_cpus0.iq.fu_full::SimdReduceAdd            0      0.00%      9.81% # attempts to use FU when none available
system.switch_cpus0.iq.fu_full::SimdReduceAlu            0      0.00%      9.81% # attempts to use FU when none available
system.switch_cpus0.iq.fu_full::SimdReduceCmp            0      0.00%      9.81% # attempts to use FU when none available
system.switch_cpus0.iq.fu_full::SimdFloatReduceAdd            0      0.00%      9.81% # attempts to use FU when none available
system.switch_cpus0.iq.fu_full::SimdFloatReduceCmp            0      0.00%      9.81% # attempts to use FU when none available
system.switch_cpus0.iq.fu_full::SimdAes             0      0.00%      9.81% # attempts to use FU when none available
system.switch_cpus0.iq.fu_full::SimdAesMix            0      0.00%      9.81% # attempts to use FU when none available
system.switch_cpus0.iq.fu_full::SimdSha1Hash            0      0.00%      9.81% # attempts to use FU when none available
system.switch_cpus0.iq.fu_full::SimdSha1Hash2            0      0.00%      9.81% # attempts to use FU when none available
system.switch_cpus0.iq.fu_full::SimdSha256Hash            0      0.00%      9.81% # attempts to use FU when none available
system.switch_cpus0.iq.fu_full::SimdSha256Hash2            0      0.00%      9.81% # attempts to use FU when none available
system.switch_cpus0.iq.fu_full::SimdShaSigma2            0      0.00%      9.81% # attempts to use FU when none available
system.switch_cpus0.iq.fu_full::SimdShaSigma3            0      0.00%      9.81% # attempts to use FU when none available
system.switch_cpus0.iq.fu_full::SimdPredAlu            0      0.00%      9.81% # attempts to use FU when none available
system.switch_cpus0.iq.fu_full::MemRead       1842590      7.45%     17.25% # attempts to use FU when none available
system.switch_cpus0.iq.fu_full::MemWrite      6911794     27.93%     45.18% # attempts to use FU when none available
system.switch_cpus0.iq.fu_full::FloatMemRead      9831344     39.72%     84.90% # attempts to use FU when none available
system.switch_cpus0.iq.fu_full::FloatMemWrite      3736296     15.10%    100.00% # attempts to use FU when none available
system.switch_cpus0.iq.fu_full::IprAccess            0      0.00%    100.00% # attempts to use FU when none available
system.switch_cpus0.iq.fu_full::InstPrefetch            0      0.00%    100.00% # attempts to use FU when none available
system.switch_cpus0.iq.int_alu_accesses     256399167                       # Number of integer alu accesses
system.switch_cpus0.iq.int_inst_queue_reads   2158352131                       # Number of integer instruction queue reads
system.switch_cpus0.iq.int_inst_queue_wakeup_accesses    243470242                       # Number of integer instruction queue wakeup accesses
system.switch_cpus0.iq.int_inst_queue_writes    377594385                       # Number of integer instruction queue writes
system.switch_cpus0.iq.iqInstsAdded         606793815                       # Number of instructions added to the IQ (excludes non-spec)
system.switch_cpus0.iq.iqInstsIssued        604104099                       # Number of instructions issued
system.switch_cpus0.iq.iqNonSpecInstsAdded        10440                       # Number of non-speculative instructions added to the IQ
system.switch_cpus0.iq.iqSquashedInstsExamined    159995642                       # Number of squashed instructions iterated over during squash; mainly for profiling
system.switch_cpus0.iq.iqSquashedInstsIssued       194488                       # Number of squashed instructions issued
system.switch_cpus0.iq.iqSquashedNonSpecRemoved         9399                       # Number of squashed non-spec instructions that were removed
system.switch_cpus0.iq.iqSquashedOperandsExamined     52641914                       # Number of squashed operands that are examined and possibly removed from graph
system.switch_cpus0.iq.issued_per_cycle::samples   1629021307                       # Number of insts issued each cycle
system.switch_cpus0.iq.issued_per_cycle::mean     0.370839                       # Number of insts issued each cycle
system.switch_cpus0.iq.issued_per_cycle::stdev     1.321958                       # Number of insts issued each cycle
system.switch_cpus0.iq.issued_per_cycle::underflows            0      0.00%      0.00% # Number of insts issued each cycle
system.switch_cpus0.iq.issued_per_cycle::0   1462306112     89.77%     89.77% # Number of insts issued each cycle
system.switch_cpus0.iq.issued_per_cycle::1     40714451      2.50%     92.27% # Number of insts issued each cycle
system.switch_cpus0.iq.issued_per_cycle::2     28222658      1.73%     94.00% # Number of insts issued each cycle
system.switch_cpus0.iq.issued_per_cycle::3     20995427      1.29%     95.29% # Number of insts issued each cycle
system.switch_cpus0.iq.issued_per_cycle::4     20053757      1.23%     96.52% # Number of insts issued each cycle
system.switch_cpus0.iq.issued_per_cycle::5     16043722      0.98%     97.50% # Number of insts issued each cycle
system.switch_cpus0.iq.issued_per_cycle::6     15922698      0.98%     98.48% # Number of insts issued each cycle
system.switch_cpus0.iq.issued_per_cycle::7     10111631      0.62%     99.10% # Number of insts issued each cycle
system.switch_cpus0.iq.issued_per_cycle::8     14650851      0.90%    100.00% # Number of insts issued each cycle
system.switch_cpus0.iq.issued_per_cycle::overflows            0      0.00%    100.00% # Number of insts issued each cycle
system.switch_cpus0.iq.issued_per_cycle::min_value            0                       # Number of insts issued each cycle
system.switch_cpus0.iq.issued_per_cycle::max_value            8                       # Number of insts issued each cycle
system.switch_cpus0.iq.issued_per_cycle::total   1629021307                       # Number of insts issued each cycle
system.switch_cpus0.iq.rate                  0.370828                       # Inst issue rate
system.switch_cpus0.iq.vec_alu_accesses             0                       # Number of vector alu accesses
system.switch_cpus0.iq.vec_inst_queue_reads            0                       # Number of vector instruction queue reads
system.switch_cpus0.iq.vec_inst_queue_wakeup_accesses            0                       # Number of vector instruction queue wakeup accesses
system.switch_cpus0.iq.vec_inst_queue_writes            0                       # Number of vector instruction queue writes
system.switch_cpus0.memDep0.conflictingLoads     17470505                       # Number of conflicting loads.
system.switch_cpus0.memDep0.conflictingStores     16664816                       # Number of conflicting stores.
system.switch_cpus0.memDep0.insertedLoads    116198587                       # Number of loads inserted to the mem dependence unit.
system.switch_cpus0.memDep0.insertedStores     66658368                       # Number of stores inserted to the mem dependence unit.
system.switch_cpus0.misc_regfile_reads      247962965                       # number of misc regfile reads
system.switch_cpus0.misc_regfile_writes             1                       # number of misc regfile writes
system.switch_cpus0.numCycles              1629066165                       # number of cpu cycles simulated
system.switch_cpus0.numWorkItemsCompleted            0                       # number of work items this cpu completed
system.switch_cpus0.numWorkItemsStarted             0                       # number of work items this cpu started
system.switch_cpus0.timesIdled                    140                       # Number of times that the entire CPU went into an idle state and unscheduled itself
system.switch_cpus1.cc_regfile_reads        184985430                       # number of cc regfile reads
system.switch_cpus1.cc_regfile_writes       116157578                       # number of cc regfile writes
system.switch_cpus1.committedInsts          231053933                       # Number of Instructions Simulated
system.switch_cpus1.committedOps            411770408                       # Number of Ops (including micro ops) Simulated
system.switch_cpus1.cpi                      7.050588                       # CPI: Cycles Per Instruction
system.switch_cpus1.cpi_total                7.050588                       # CPI: Total CPI of All Threads
system.switch_cpus1.fp_regfile_reads        359204005                       # number of floating regfile reads
system.switch_cpus1.fp_regfile_writes       269906447                       # number of floating regfile writes
system.switch_cpus1.idleCycles                  38538                       # Total number of cycles that the CPU has spent unscheduled due to idling
system.switch_cpus1.iew.branchMispredicts       559457                       # Number of branch mispredicts detected at execute
system.switch_cpus1.iew.exec_branches        26907281                       # Number of branches executed
system.switch_cpus1.iew.exec_nop                    0                       # number of nop insts executed
system.switch_cpus1.iew.exec_rate            0.345271                       # Inst execution rate
system.switch_cpus1.iew.exec_refs           176390449                       # number of memory reference insts executed
system.switch_cpus1.iew.exec_stores          61632321                       # Number of stores executed
system.switch_cpus1.iew.exec_swp                    0                       # number of swp insts executed
system.switch_cpus1.iew.iewBlockCycles      304518564                       # Number of cycles IEW is blocking
system.switch_cpus1.iew.iewDispLoadInsts    108916501                       # Number of dispatched load instructions
system.switch_cpus1.iew.iewDispNonSpecInsts           50                       # Number of dispatched non-speculative instructions
system.switch_cpus1.iew.iewDispSquashedInsts         7704                       # Number of squashed instructions skipped by dispatch
system.switch_cpus1.iew.iewDispStoreInsts     62947298                       # Number of dispatched store instructions
system.switch_cpus1.iew.iewDispatchedInsts    565065830                       # Number of instructions dispatched to IQ
system.switch_cpus1.iew.iewExecLoadInsts    114758128                       # Number of load instructions executed
system.switch_cpus1.iew.iewExecSquashedInsts      1083815                       # Number of squashed instructions skipped in execute
system.switch_cpus1.iew.iewExecutedInsts    562468751                       # Number of executed instructions
system.switch_cpus1.iew.iewIQFullEvents       1706684                       # Number of times the IQ has become full, causing a stall
system.switch_cpus1.iew.iewIdleCycles               0                       # Number of cycles IEW is idle
system.switch_cpus1.iew.iewLSQFullEvents    329025869                       # Number of times the LSQ has become full, causing a stall
system.switch_cpus1.iew.iewSquashCycles       1582817                       # Number of cycles IEW is squashing
system.switch_cpus1.iew.iewUnblockCycles    331698655                       # Number of cycles IEW is unblocking
system.switch_cpus1.iew.memOrderViolationEvents         4383                       # Number of memory order violations
system.switch_cpus1.iew.predictedNotTakenIncorrect       282742                       # Number of branches that were predicted not taken incorrectly
system.switch_cpus1.iew.predictedTakenIncorrect       276715                       # Number of branches that were predicted taken incorrectly
system.switch_cpus1.iew.wb_consumers        515257469                       # num instructions consuming a value
system.switch_cpus1.iew.wb_count            540280383                       # cumulative count of insts written-back
system.switch_cpus1.iew.wb_fanout            0.619630                       # average fanout of values written-back
system.switch_cpus1.iew.wb_producers        319269008                       # num instructions producing a value
system.switch_cpus1.iew.wb_rate              0.331650                       # insts written-back per cycle
system.switch_cpus1.iew.wb_sent             553062910                       # cumulative count of insts sent to commit
system.switch_cpus1.int_regfile_reads       554279004                       # number of integer regfile reads
system.switch_cpus1.int_regfile_writes      176774639                       # number of integer regfile writes
system.switch_cpus1.ipc                      0.141832                       # IPC: Instructions Per Cycle
system.switch_cpus1.ipc_total                0.141832                       # IPC: Total IPC of All Threads
system.switch_cpus1.iq.FU_type_0::No_OpClass     12729683      2.26%      2.26% # Type of FU issued
system.switch_cpus1.iq.FU_type_0::IntAlu    231509357     41.08%     43.34% # Type of FU issued
system.switch_cpus1.iq.FU_type_0::IntMult            0      0.00%     43.34% # Type of FU issued
system.switch_cpus1.iq.FU_type_0::IntDiv            0      0.00%     43.34% # Type of FU issued
system.switch_cpus1.iq.FU_type_0::FloatAdd     68411376     12.14%     55.48% # Type of FU issued
system.switch_cpus1.iq.FU_type_0::FloatCmp            0      0.00%     55.48% # Type of FU issued
system.switch_cpus1.iq.FU_type_0::FloatCvt           14      0.00%     55.48% # Type of FU issued
system.switch_cpus1.iq.FU_type_0::FloatMult            0      0.00%     55.48% # Type of FU issued
system.switch_cpus1.iq.FU_type_0::FloatMultAcc            0      0.00%     55.48% # Type of FU issued
system.switch_cpus1.iq.FU_type_0::FloatDiv            0      0.00%     55.48% # Type of FU issued
system.switch_cpus1.iq.FU_type_0::FloatMisc            0      0.00%     55.48% # Type of FU issued
system.switch_cpus1.iq.FU_type_0::FloatSqrt            0      0.00%     55.48% # Type of FU issued
system.switch_cpus1.iq.FU_type_0::SimdAdd            0      0.00%     55.48% # Type of FU issued
system.switch_cpus1.iq.FU_type_0::SimdAddAcc            0      0.00%     55.48% # Type of FU issued
system.switch_cpus1.iq.FU_type_0::SimdAlu        28103      0.00%     55.48% # Type of FU issued
system.switch_cpus1.iq.FU_type_0::SimdCmp            0      0.00%     55.48% # Type of FU issued
system.switch_cpus1.iq.FU_type_0::SimdCvt            0      0.00%     55.48% # Type of FU issued
system.switch_cpus1.iq.FU_type_0::SimdMisc            0      0.00%     55.48% # Type of FU issued
system.switch_cpus1.iq.FU_type_0::SimdMult            0      0.00%     55.48% # Type of FU issued
system.switch_cpus1.iq.FU_type_0::SimdMultAcc            0      0.00%     55.48% # Type of FU issued
system.switch_cpus1.iq.FU_type_0::SimdShift            0      0.00%     55.48% # Type of FU issued
system.switch_cpus1.iq.FU_type_0::SimdShiftAcc            0      0.00%     55.48% # Type of FU issued
system.switch_cpus1.iq.FU_type_0::SimdDiv            0      0.00%     55.48% # Type of FU issued
system.switch_cpus1.iq.FU_type_0::SimdSqrt            0      0.00%     55.48% # Type of FU issued
system.switch_cpus1.iq.FU_type_0::SimdFloatAdd     27014562      4.79%     60.28% # Type of FU issued
system.switch_cpus1.iq.FU_type_0::SimdFloatAlu            0      0.00%     60.28% # Type of FU issued
system.switch_cpus1.iq.FU_type_0::SimdFloatCmp     27850030      4.94%     65.22% # Type of FU issued
system.switch_cpus1.iq.FU_type_0::SimdFloatCvt      5239143      0.93%     66.15% # Type of FU issued
system.switch_cpus1.iq.FU_type_0::SimdFloatDiv            0      0.00%     66.15% # Type of FU issued
system.switch_cpus1.iq.FU_type_0::SimdFloatMisc            0      0.00%     66.15% # Type of FU issued
system.switch_cpus1.iq.FU_type_0::SimdFloatMult     14123918      2.51%     68.65% # Type of FU issued
system.switch_cpus1.iq.FU_type_0::SimdFloatMultAcc            0      0.00%     68.65% # Type of FU issued
system.switch_cpus1.iq.FU_type_0::SimdFloatSqrt            0      0.00%     68.65% # Type of FU issued
system.switch_cpus1.iq.FU_type_0::SimdReduceAdd            0      0.00%     68.65% # Type of FU issued
system.switch_cpus1.iq.FU_type_0::SimdReduceAlu            0      0.00%     68.65% # Type of FU issued
system.switch_cpus1.iq.FU_type_0::SimdReduceCmp            0      0.00%     68.65% # Type of FU issued
system.switch_cpus1.iq.FU_type_0::SimdFloatReduceAdd            0      0.00%     68.65% # Type of FU issued
system.switch_cpus1.iq.FU_type_0::SimdFloatReduceCmp            0      0.00%     68.65% # Type of FU issued
system.switch_cpus1.iq.FU_type_0::SimdAes            0      0.00%     68.65% # Type of FU issued
system.switch_cpus1.iq.FU_type_0::SimdAesMix            0      0.00%     68.65% # Type of FU issued
system.switch_cpus1.iq.FU_type_0::SimdSha1Hash            0      0.00%     68.65% # Type of FU issued
[...]
system.switch_cpus3.commit.numCommittedDist::0   1512646288     93.88%     93.88% # Number of insts commited each cycle
system.switch_cpus3.commit.numCommittedDist::1     35624238      2.21%     96.09% # Number of insts commited each cycle
system.switch_cpus3.commit.numCommittedDist::2      4799632      0.30%     96.39% # Number of insts commited each cycle
system.switch_cpus3.commit.numCommittedDist::3      8768133      0.54%     96.93% # Number of insts commited each cycle
system.switch_cpus3.commit.numCommittedDist::4      9774947      0.61%     97.54% # Number of insts commited each cycle
system.switch_cpus3.commit.numCommittedDist::5      2932835      0.18%     97.72% # Number of insts commited each cycle
system.switch_cpus3.commit.numCommittedDist::6      3709843      0.23%     97.95% # Number of insts commited each cycle
system.switch_cpus3.commit.numCommittedDist::7      3761016      0.23%     98.18% # Number of insts commited each cycle
system.switch_cpus3.commit.numCommittedDist::8     29253494      1.82%    100.00% # Number of insts commited each cycle
system.switch_cpus3.commit.numCommittedDist::overflows            0      0.00%    100.00% # Number of insts commited each cycle
system.switch_cpus3.commit.numCommittedDist::min_value            0                       # Number of insts commited each cycle
system.switch_cpus3.commit.numCommittedDist::max_value            8                       # Number of insts commited each cycle
system.switch_cpus3.commit.numCommittedDist::total   1611270426                       # Number of insts commited each cycle
system.switch_cpus3.commit.instsCommitted    228998305                       # Number of instructions committed
system.switch_cpus3.commit.opsCommitted     407905986                       # Number of ops (including micro ops) committed
system.switch_cpus3.commit.memRefs           98385702                       # Number of memory references committed
system.switch_cpus3.commit.loads             73504849                       # Number of loads committed
system.switch_cpus3.commit.amos                     0                       # Number of atomic instructions committed
system.switch_cpus3.commit.membars                 40                       # Number of memory barriers committed
system.switch_cpus3.commit.branches          20857677                       # Number of branches committed
system.switch_cpus3.commit.vector                   0                       # Number of committed Vector instructions.
system.switch_cpus3.commit.floating         267031237                       # Number of committed floating point instructions.
system.switch_cpus3.commit.integer          217705788                       # Number of committed integer instructions.
system.switch_cpus3.commit.functionCalls       640823                       # Number of function calls committed.
system.switch_cpus3.commit.committedInstType_0::No_OpClass       111164      0.03%      0.03% # Class of committed instruction
system.switch_cpus3.commit.committedInstType_0::IntAlu    168649211     41.35%     41.37% # Class of committed instruction
system.switch_cpus3.commit.committedInstType_0::IntMult            0      0.00%     41.37% # Class of committed instruction
system.switch_cpus3.commit.committedInstType_0::IntDiv            0      0.00%     41.37% # Class of committed instruction
system.switch_cpus3.commit.committedInstType_0::FloatAdd     67263106     16.49%     57.86% # Class of committed instruction
system.switch_cpus3.commit.committedInstType_0::FloatCmp            0      0.00%     57.86% # Class of committed instruction
system.switch_cpus3.commit.committedInstType_0::FloatCvt            0      0.00%     57.86% # Class of committed instruction
system.switch_cpus3.commit.committedInstType_0::FloatMult            0      0.00%     57.86% # Class of committed instruction
system.switch_cpus3.commit.committedInstType_0::FloatMultAcc            0      0.00%     57.86% # Class of committed instruction
system.switch_cpus3.commit.committedInstType_0::FloatDiv            0      0.00%     57.86% # Class of committed instruction
system.switch_cpus3.commit.committedInstType_0::FloatMisc            0      0.00%     57.86% # Class of committed instruction
system.switch_cpus3.commit.committedInstType_0::FloatSqrt            0      0.00%     57.86% # Class of committed instruction
system.switch_cpus3.commit.committedInstType_0::SimdAdd            0      0.00%     57.86% # Class of committed instruction
system.switch_cpus3.commit.committedInstType_0::SimdAddAcc            0      0.00%     57.86% # Class of committed instruction
system.switch_cpus3.commit.committedInstType_0::SimdAlu        22270      0.01%     57.87% # Class of committed instruction
system.switch_cpus3.commit.committedInstType_0::SimdCmp            0      0.00%     57.87% # Class of committed instruction
system.switch_cpus3.commit.committedInstType_0::SimdCvt            0      0.00%     57.87% # Class of committed instruction
system.switch_cpus3.commit.committedInstType_0::SimdMisc            0      0.00%     57.87% # Class of committed instruction
system.switch_cpus3.commit.committedInstType_0::SimdMult            0      0.00%     57.87% # Class of committed instruction
system.switch_cpus3.commit.committedInstType_0::SimdMultAcc            0      0.00%     57.87% # Class of committed instruction
system.switch_cpus3.commit.committedInstType_0::SimdShift            0      0.00%     57.87% # Class of committed instruction
system.switch_cpus3.commit.committedInstType_0::SimdShiftAcc            0      0.00%     57.87% # Class of committed instruction
system.switch_cpus3.commit.committedInstType_0::SimdDiv            0      0.00%     57.87% # Class of committed instruction
system.switch_cpus3.commit.committedInstType_0::SimdSqrt            0      0.00%     57.87% # Class of committed instruction
system.switch_cpus3.commit.committedInstType_0::SimdFloatAdd     26743858      6.56%     64.42% # Class of committed instruction
system.switch_cpus3.commit.committedInstType_0::SimdFloatAlu            0      0.00%     64.42% # Class of committed instruction
system.switch_cpus3.commit.committedInstType_0::SimdFloatCmp     27577581      6.76%     71.18% # Class of committed instruction
system.switch_cpus3.commit.committedInstType_0::SimdFloatCvt      5165140      1.27%     72.45% # Class of committed instruction
system.switch_cpus3.commit.committedInstType_0::SimdFloatDiv            0      0.00%     72.45% # Class of committed instruction
system.switch_cpus3.commit.committedInstType_0::SimdFloatMisc            0      0.00%     72.45% # Class of committed instruction
system.switch_cpus3.commit.committedInstType_0::SimdFloatMult     13987954      3.43%     75.88% # Class of committed instruction
system.switch_cpus3.commit.committedInstType_0::SimdFloatMultAcc            0      0.00%     75.88% # Class of committed instruction
system.switch_cpus3.commit.committedInstType_0::SimdFloatSqrt            0      0.00%     75.88% # Class of committed instruction
system.switch_cpus3.commit.committedInstType_0::SimdReduceAdd            0      0.00%     75.88% # Class of committed instruction
system.switch_cpus3.commit.committedInstType_0::SimdReduceAlu            0      0.00%     75.88% # Class of committed instruction
system.switch_cpus3.commit.committedInstType_0::SimdReduceCmp            0      0.00%     75.88% # Class of committed instruction
system.switch_cpus3.commit.committedInstType_0::SimdFloatReduceAdd            0      0.00%     75.88% # Class of committed instruction
system.switch_cpus3.commit.committedInstType_0::SimdFloatReduceCmp            0      0.00%     75.88% # Class of committed instruction
system.switch_cpus3.commit.committedInstType_0::SimdAes            0      0.00%     75.88% # Class of committed instruction
system.switch_cpus3.commit.committedInstType_0::SimdAesMix            0      0.00%     75.88% # Class of committed instruction
system.switch_cpus3.commit.committedInstType_0::SimdSha1Hash            0      0.00%     75.88% # Class of committed instruction
system.switch_cpus3.commit.committedInstType_0::SimdSha1Hash2            0      0.00%     75.88% # Class of committed instruction
system.switch_cpus3.commit.committedInstType_0::SimdSha256Hash            0      0.00%     75.88% # Class of committed instruction
system.switch_cpus3.commit.committedInstType_0::SimdSha256Hash2            0      0.00%     75.88% # Class of committed instruction
system.switch_cpus3.commit.committedInstType_0::SimdShaSigma2            0      0.00%     75.88% # Class of committed instruction
system.switch_cpus3.commit.committedInstType_0::SimdShaSigma3            0      0.00%     75.88% # Class of committed instruction
system.switch_cpus3.commit.committedInstType_0::SimdPredAlu            0      0.00%     75.88% # Class of committed instruction
system.switch_cpus3.commit.committedInstType_0::MemRead     14783347      3.62%     79.50% # Class of committed instruction
system.switch_cpus3.commit.committedInstType_0::MemWrite      6656633      1.63%     81.14% # Class of committed instruction
system.switch_cpus3.commit.committedInstType_0::FloatMemRead     58721502     14.40%     95.53% # Class of committed instruction
system.switch_cpus3.commit.committedInstType_0::FloatMemWrite     18224220      4.47%    100.00% # Class of committed instruction
system.switch_cpus3.commit.committedInstType_0::IprAccess            0      0.00%    100.00% # Class of committed instruction
system.switch_cpus3.commit.committedInstType_0::InstPrefetch            0      0.00%    100.00% # Class of committed instruction
system.switch_cpus3.commit.committedInstType_0::total    407905986                       # Class of committed instruction
system.switch_cpus3.commit.commitEligibleSamples     29253494                       # number cycles where commit BW limit reached
system.switch_cpus3.decode.idleCycles        14697760                       # Number of cycles decode is idle
system.switch_cpus3.decode.blockedCycles   1537205483                       # Number of cycles decode is blocked
system.switch_cpus3.decode.runCycles         46741955                       # Number of cycles decode is running
system.switch_cpus3.decode.unblockCycles     28801614                       # Number of cycles decode is unblocking
system.switch_cpus3.decode.squashCycles       1572981                       # Number of cycles decode is squashing
system.switch_cpus3.decode.branchResolved     16214936                       # Number of times decode resolved a  branch
system.switch_cpus3.decode.branchMispred          253                       # Number of times decode detected a branch misprediction
system.switch_cpus3.decode.decodedInsts     577661363                       # Number of instructions handled by decode
system.switch_cpus3.decode.squashedInsts         1429                       # Number of squashed instructions handled by decode
system.switch_cpus3.dtb.rdAccesses          115548365                       # TLB accesses on read requests
system.switch_cpus3.dtb.wrAccesses           61305904                       # TLB accesses on write requests
system.switch_cpus3.dtb.rdMisses              2704962                       # TLB misses on read requests
system.switch_cpus3.dtb.wrMisses               327625                       # TLB misses on write requests
system.switch_cpus3.dtb.walker.power_state.pwrStateResidencyTicks::UNDEFINED 18761641287957                       # Cumulative time (in ticks) in various power states
system.switch_cpus3.fetch.icacheStallCycles       777462                       # Number of cycles fetch is stalled on an Icache miss
system.switch_cpus3.fetch.insts             333736935                       # Number of instructions fetch has processed
system.switch_cpus3.fetch.branches           33241488                       # Number of branches that fetch encountered
system.switch_cpus3.fetch.predictedBranches     19667000                       # Number of branches that fetch has predicted taken
system.switch_cpus3.fetch.cycles           1626668959                       # Number of cycles fetch has run and was not squashing or blocked
system.switch_cpus3.fetch.squashCycles        3146446                       # Number of cycles fetch has spent squashing
system.switch_cpus3.fetch.miscStallCycles            7                       # Number of cycles fetch has spent waiting on interrupts,or bad addresses, or out of MSHRs
system.switch_cpus3.fetch.pendingTrapStallCycles          145                       # Number of stall cycles due to pending traps
system.switch_cpus3.fetch.cacheLines         43005658                       # Number of cache lines fetched
system.switch_cpus3.fetch.icacheSquashes          188                       # Number of outstanding Icache misses that were squashed
system.switch_cpus3.fetch.nisnDist::samples   1629019796                       # Number of instructions fetched each cycle (Total)
system.switch_cpus3.fetch.nisnDist::mean     0.391433                       # Number of instructions fetched each cycle (Total)
system.switch_cpus3.fetch.nisnDist::stdev     1.605066                       # Number of instructions fetched each cycle (Total)
system.switch_cpus3.fetch.nisnDist::underflows            0      0.00%      0.00% # Number of instructions fetched each cycle (Total)
system.switch_cpus3.fetch.nisnDist::0      1522623800     93.47%     93.47% # Number of instructions fetched each cycle (Total)
system.switch_cpus3.fetch.nisnDist::1         4498671      0.28%     93.74% # Number of instructions fetched each cycle (Total)
system.switch_cpus3.fetch.nisnDist::2        12101366      0.74%     94.49% # Number of instructions fetched each cycle (Total)
system.switch_cpus3.fetch.nisnDist::3         7068751      0.43%     94.92% # Number of instructions fetched each cycle (Total)
system.switch_cpus3.fetch.nisnDist::4         6429222      0.39%     95.32% # Number of instructions fetched each cycle (Total)
system.switch_cpus3.fetch.nisnDist::5         9478802      0.58%     95.90% # Number of instructions fetched each cycle (Total)
system.switch_cpus3.fetch.nisnDist::6         6174583      0.38%     96.28% # Number of instructions fetched each cycle (Total)
system.switch_cpus3.fetch.nisnDist::7         7570822      0.46%     96.74% # Number of instructions fetched each cycle (Total)
system.switch_cpus3.fetch.nisnDist::8        53073779      3.26%    100.00% # Number of instructions fetched each cycle (Total)
system.switch_cpus3.fetch.nisnDist::overflows            0      0.00%    100.00% # Number of instructions fetched each cycle (Total)
system.switch_cpus3.fetch.nisnDist::min_value            0                       # Number of instructions fetched each cycle (Total)
system.switch_cpus3.fetch.nisnDist::max_value            8                       # Number of instructions fetched each cycle (Total)
system.switch_cpus3.fetch.nisnDist::total   1629019796                       # Number of instructions fetched each cycle (Total)
system.switch_cpus3.fetch.branchRate         0.020405                       # Number of branch fetches per cycle
system.switch_cpus3.fetch.rate               0.204864                       # Number of inst fetches per cycle
system.switch_cpus3.itb.rdAccesses                  0                       # TLB accesses on read requests
system.switch_cpus3.itb.wrAccesses           43005697                       # TLB accesses on write requests
system.switch_cpus3.itb.rdMisses                    0                       # TLB misses on read requests
system.switch_cpus3.itb.wrMisses                   68                       # TLB misses on write requests
system.switch_cpus3.itb.walker.power_state.pwrStateResidencyTicks::UNDEFINED 18761641287957                       # Cumulative time (in ticks) in various power states
system.switch_cpus3.lsq0.forwLoads             747658                       # Number of loads that had data forwarded from stores
system.switch_cpus3.lsq0.squashedLoads       34660538                       # Number of loads squashed
system.switch_cpus3.lsq0.ignoredResponses          629                       # Number of memory responses ignored because the instruction is squashed
system.switch_cpus3.lsq0.memOrderViolation         3789                       # Number of memory ordering violations
system.switch_cpus3.lsq0.squashedStores      37701370                       # Number of stores squashed
system.switch_cpus3.lsq0.rescheduledLoads      6924634                       # Number of loads that were rescheduled
system.switch_cpus3.lsq0.blockedByCache          8770                       # Number of times an access to memory failed due to the cache being blocked
system.switch_cpus3.power_state.pwrStateResidencyTicks::OFF 542479043934                       # Cumulative time (in ticks) in various power states
system.switch_cpus3.rename.squashCycles       1572981                       # Number of cycles rename is squashing
system.switch_cpus3.rename.idleCycles        25742007                       # Number of cycles rename is idle
system.switch_cpus3.rename.blockCycles      893665545                       # Number of cycles rename is blocking
system.switch_cpus3.rename.serializeStallCycles            0                       # count of cycles rename stalledfor serializing inst
system.switch_cpus3.rename.runCycles         62634826                       # Number of cycles rename is running
system.switch_cpus3.rename.unblockCycles    645404434                       # Number of cycles rename is unblocking
system.switch_cpus3.rename.renamedInsts     564464020                       # Number of instructions processed by rename
system.switch_cpus3.rename.ROBFullEvents      8749229                       # Number of times rename has blocked due to ROB full
system.switch_cpus3.rename.IQFullEvents     146203105                       # Number of times rename has blocked due to IQ full
system.switch_cpus3.rename.LQFullEvents     290314895                       # Number of times rename has blocked due to LQ full
system.switch_cpus3.rename.SQFullEvents     316973550                       # Number of times rename has blocked due to SQ full
system.switch_cpus3.rename.renamedOperands    576488195                       # Number of destination operands rename has renamed
system.switch_cpus3.rename.lookups         1348383919                       # Number of register rename lookups that rename has made
system.switch_cpus3.rename.intLookups       557786334                       # Number of integer rename lookups
system.switch_cpus3.rename.fpLookups        359058600                       # Number of floating rename lookups
system.switch_cpus3.rename.committedMaps    432033057                       # Number of HB maps that are committed
system.switch_cpus3.rename.undoneMaps       144455038                       # Number of HB maps that are undone due to squashing
system.switch_cpus3.rename.serializing              0                       # count of serializing insts renamed
system.switch_cpus3.rename.tempSerializing            0                       # count of temporary serializing insts renamed
system.switch_cpus3.rename.skidInsts        160003278                       # count of insts added to the skid buffer
system.switch_cpus3.rob.reads              2105363019                       # The number of ROB reads
system.switch_cpus3.rob.writes             1091729912                       # The number of ROB writes
system.switch_cpus3.thread0.numInsts        228998305                       # Number of Instructions committed
system.switch_cpus3.thread0.numOps          407905986                       # Number of Ops committed
system.switch_cpus3.thread0.numMemRefs              0                       # Number of Memory References
system.voltage_domain.voltage                       1                       # Voltage in Volts

---------- End Simulation Statistics   ----------
