
---------- Begin Simulation Statistics ----------
final_tick                               18766441929843                       # Number of ticks from beginning of simulation (restored from checkpoints and never reset)
host_inst_rate                                  54935                       # Simulator instruction rate (inst/s)
host_mem_usage                               17865364                       # Number of bytes of host memory used
host_op_rate                                    98165                       # Simulator op (including micro ops) rate (op/s)
host_seconds                                 17908.31                       # Real time elapsed on the host
host_tick_rate                               30560101                       # Simulator tick rate (ticks/s)
sim_freq                                 1000000000000                       # Frequency of simulated ticks
sim_insts                                   983796397                       # Number of instructions simulated
sim_ops                                    1757967260                       # Number of ops (including micro ops) simulated
sim_seconds                                  0.547280                       # Number of seconds simulated
sim_ticks                                547279688817                       # Number of ticks simulated
system.cpu0.Branches                                3                       # Number of branches fetched
system.cpu0.committedInsts                         16                       # Number of instructions committed
system.cpu0.committedOps                           27                       # Number of ops (including micro ops) committed
system.cpu0.idle_fraction                           0                       # Percentage of idle cycles
system.cpu0.l2bus.snoop_filter.hit_multi_requests           13                       # Number of requests hitting in the snoop filter with multiple (>1) holders of the requested data.
system.cpu0.l2bus.snoop_filter.hit_multi_snoops            3                       # Number of snoops hitting in the snoop filter with multiple (>1) holders of the requested data.
system.cpu0.l2bus.snoop_filter.hit_single_requests     12113908                       # Number of requests hitting in the snoop filter with a single holder of the requested data.
system.cpu0.l2bus.snoop_filter.hit_single_snoops      6994020                       # Number of snoops hitting in the snoop filter with a single holder of the requested data.
system.cpu0.l2bus.snoop_filter.tot_requests     24220290                       # Total number of requests made to the snoop filter.
system.cpu0.l2bus.snoop_filter.tot_snoops      6994023                       # Total number of snoops made to the snoop filter.
system.cpu0.mmucache.mmubus.snoop_filter.hit_multi_requests            0                       # Number of requests hitting in the snoop filter with multiple (>1) holders of the requested data.
system.cpu0.mmucache.mmubus.snoop_filter.hit_multi_snoops            0                       # Number of snoops hitting in the snoop filter with multiple (>1) holders of the requested data.
system.cpu0.mmucache.mmubus.snoop_filter.hit_single_requests            0                       # Number of requests hitting in the snoop filter with a single holder of the requested data.
system.cpu0.mmucache.mmubus.snoop_filter.hit_single_snoops            0                       # Number of snoops hitting in the snoop filter with a single holder of the requested data.
system.cpu0.mmucache.mmubus.snoop_filter.tot_requests            0                       # Total number of requests made to the snoop filter.
system.cpu0.mmucache.mmubus.snoop_filter.tot_snoops            0                       # Total number of snoops made to the snoop filter.
system.cpu0.not_idle_fraction                       1                       # Percentage of non-idle cycles
system.cpu0.numCycles                              32                       # number of cpu cycles simulated
system.cpu0.numWorkItemsCompleted                   0                       # number of work items this cpu completed
system.cpu0.numWorkItemsStarted                     0                       # number of work items this cpu started
system.cpu0.num_busy_cycles                        32                       # Number of busy cycles
system.cpu0.num_cc_register_reads                  41                       # number of times the CC registers were read
system.cpu0.num_cc_register_writes                 10                       # number of times the CC registers were written
system.cpu0.num_conditional_control_insts            3                       # number of instructions that are conditional controls
system.cpu0.num_fp_alu_accesses                     9                       # Number of float alu accesses
system.cpu0.num_fp_insts                            9                       # number of float instructions
system.cpu0.num_fp_register_reads                  16                       # number of times the floating registers were read
system.cpu0.num_fp_register_writes                  7                       # number of times the floating registers were written
system.cpu0.num_func_calls                          0                       # number of times a function call or return occured
system.cpu0.num_idle_cycles                         0                       # Number of idle cycles
system.cpu0.num_int_alu_accesses                   19                       # Number of integer alu accesses
system.cpu0.num_int_insts                          19                       # number of integer instructions
system.cpu0.num_int_register_reads                 34                       # number of times the integer registers were read
system.cpu0.num_int_register_writes                15                       # number of times the integer registers were written
system.cpu0.num_load_insts                          2                       # Number of load instructions
system.cpu0.num_mem_refs                            2                       # number of memory refs
system.cpu0.num_store_insts                         0                       # Number of store instructions
system.cpu0.num_vec_alu_accesses                    0                       # Number of vector alu accesses
system.cpu0.num_vec_insts                           0                       # number of vector instructions
system.cpu0.num_vec_register_reads                  0                       # number of times the vector registers were read
system.cpu0.num_vec_register_writes                 0                       # number of times the vector registers were written
system.cpu0.op_class::No_OpClass                    0      0.00%      0.00% # Class of executed instruction
system.cpu0.op_class::IntAlu                       17     62.96%     62.96% # Class of executed instruction
system.cpu0.op_class::IntMult                       0      0.00%     62.96% # Class of executed instruction
system.cpu0.op_class::IntDiv                        0      0.00%     62.96% # Class of executed instruction
system.cpu0.op_class::FloatAdd                      2      7.41%     70.37% # Class of executed instruction
system.cpu0.op_class::FloatCmp                      0      0.00%     70.37% # Class of executed instruction
system.cpu0.op_class::FloatCvt                      0      0.00%     70.37% # Class of executed instruction
system.cpu0.op_class::FloatMult                     0      0.00%     70.37% # Class of executed instruction
system.cpu0.op_class::FloatMultAcc                  0      0.00%     70.37% # Class of executed instruction
system.cpu0.op_class::FloatDiv                      0      0.00%     70.37% # Class of executed instruction
system.cpu0.op_class::FloatMisc                     0      0.00%     70.37% # Class of executed instruction
system.cpu0.op_class::FloatSqrt                     0      0.00%     70.37% # Class of executed instruction
system.cpu0.op_class::SimdAdd                       0      0.00%     70.37% # Class of executed instruction
system.cpu0.op_class::SimdAddAcc                    0      0.00%     70.37% # Class of executed instruction
system.cpu0.op_class::SimdAlu                       0      0.00%     70.37% # Class of executed instruction
system.cpu0.op_class::SimdCmp                       0      0.00%     70.37% # Class of executed instruction
system.cpu0.op_class::SimdCvt                       0      0.00%     70.37% # Class of executed instruction
system.cpu0.op_class::SimdMisc                      0      0.00%     70.37% # Class of executed instruction
system.cpu0.op_class::SimdMult                      0      0.00%     70.37% # Class of executed instruction
system.cpu0.op_class::SimdMultAcc                   0      0.00%     70.37% # Class of executed instruction
system.cpu0.op_class::SimdShift                     0      0.00%     70.37% # Class of executed instruction
system.cpu0.op_class::SimdShiftAcc                  0      0.00%     70.37% # Class of executed instruction
system.cpu0.op_class::SimdDiv                       0      0.00%     70.37% # Class of executed instruction
system.cpu0.op_class::SimdSqrt                      0      0.00%     70.37% # Class of executed instruction
system.cpu0.op_class::SimdFloatAdd                  2      7.41%     77.78% # Class of executed instruction
system.cpu0.op_class::SimdFloatAlu                  0      0.00%     77.78% # Class of executed instruction
system.cpu0.op_class::SimdFloatCmp                  1      3.70%     81.48% # Class of executed instruction
system.cpu0.op_class::SimdFloatCvt                  2      7.41%     88.89% # Class of executed instruction
system.cpu0.op_class::SimdFloatDiv                  0      0.00%     88.89% # Class of executed instruction
system.cpu0.op_class::SimdFloatMisc                 0      0.00%     88.89% # Class of executed instruction
system.cpu0.op_class::SimdFloatMult                 1      3.70%     92.59% # Class of executed instruction
system.cpu0.op_class::SimdFloatMultAcc              0      0.00%     92.59% # Class of executed instruction
system.cpu0.op_class::SimdFloatSqrt                 0      0.00%     92.59% # Class of executed instruction
system.cpu0.op_class::SimdReduceAdd                 0      0.00%     92.59% # Class of executed instruction
system.cpu0.op_class::SimdReduceAlu                 0      0.00%     92.59% # Class of executed instruction
system.cpu0.op_class::SimdReduceCmp                 0      0.00%     92.59% # Class of executed instruction
system.cpu0.op_class::SimdFloatReduceAdd            0      0.00%     92.59% # Class of executed instruction
system.cpu0.op_class::SimdFloatReduceCmp            0      0.00%     92.59% # Class of executed instruction
system.cpu0.op_class::SimdAes                       0      0.00%     92.59% # Class of executed instruction
system.cpu0.op_class::SimdAesMix                    0      0.00%     92.59% # Class of executed instruction
system.cpu0.op_class::SimdSha1Hash                  0      0.00%     92.59% # Class of executed instruction
system.cpu0.op_class::SimdSha1Hash2                 0      0.00%     92.59% # Class of executed instruction
system.cpu0.op_class::SimdSha256Hash                0      0.00%     92.59% # Class of executed instruction
system.cpu0.op_class::SimdSha256Hash2               0      0.00%     92.59% # Class of executed instruction
system.cpu0.op_class::SimdShaSigma2                 0      0.00%     92.59% # Class of executed instruction
system.cpu0.op_class::SimdShaSigma3                 0      0.00%     92.59% # Class of executed instruction
system.cpu0.op_class::SimdPredAlu                   0      0.00%     92.59% # Class of executed instruction
system.cpu0.op_class::MemRead                       1      3.70%     96.30% # Class of executed instruction
system.cpu0.op_class::MemWrite                      0      0.00%     96.30% # Class of executed instruction
system.cpu0.op_class::FloatMemRead                  1      3.70%    100.00% # Class of executed instruction
system.cpu0.op_class::FloatMemWrite                 0      0.00%    100.00% # Class of executed instruction
system.cpu0.op_class::IprAccess                     0      0.00%    100.00% # Class of executed instruction
system.cpu0.op_class::InstPrefetch                  0      0.00%    100.00% # Class of executed instruction
system.cpu0.op_class::total                        27                       # Class of executed instruction
system.cpu0.workload.numSyscalls                    0                       # Number of system calls
system.cpu1.Branches                                1                       # Number of branches fetched
system.cpu1.committedInsts                         16                       # Number of instructions committed
system.cpu1.committedOps                           23                       # Number of ops (including micro ops) committed
system.cpu1.idle_fraction                           0                       # Percentage of idle cycles
system.cpu1.l2bus.snoop_filter.hit_multi_requests           11                       # Number of requests hitting in the snoop filter with multiple (>1) holders of the requested data.
system.cpu1.l2bus.snoop_filter.hit_multi_snoops            0                       # Number of snoops hitting in the snoop filter with multiple (>1) holders of the requested data.
system.cpu1.l2bus.snoop_filter.hit_single_requests     12226465                       # Number of requests hitting in the snoop filter with a single holder of the requested data.
system.cpu1.l2bus.snoop_filter.hit_single_snoops         3863                       # Number of snoops hitting in the snoop filter with a single holder of the requested data.
system.cpu1.l2bus.snoop_filter.tot_requests     24450625                       # Total number of requests made to the snoop filter.
system.cpu1.l2bus.snoop_filter.tot_snoops         3863                       # Total number of snoops made to the snoop filter.
system.cpu1.mmucache.mmubus.snoop_filter.hit_multi_requests            0                       # Number of requests hitting in the snoop filter with multiple (>1) holders of the requested data.
system.cpu1.mmucache.mmubus.snoop_filter.hit_multi_snoops            0                       # Number of snoops hitting in the snoop filter with multiple (>1) holders of the requested data.
system.cpu1.mmucache.mmubus.snoop_filter.hit_single_requests            0                       # Number of requests hitting in the snoop filter with a single holder of the requested data.
system.cpu1.mmucache.mmubus.snoop_filter.hit_single_snoops            0                       # Number of snoops hitting in the snoop filter with a single holder of the requested data.
system.cpu1.mmucache.mmubus.snoop_filter.tot_requests            0                       # Total number of requests made to the snoop filter.
system.cpu1.mmucache.mmubus.snoop_filter.tot_snoops            0                       # Total number of snoops made to the snoop filter.
system.cpu1.not_idle_fraction                       1                       # Percentage of non-idle cycles
system.cpu1.numCycles                              31                       # number of cpu cycles simulated
system.cpu1.numWorkItemsCompleted                   0                       # number of work items this cpu completed
system.cpu1.numWorkItemsStarted                     0                       # number of work items this cpu started
system.cpu1.num_busy_cycles                        31                       # Number of busy cycles
system.cpu1.num_cc_register_reads                   7                       # number of times the CC registers were read
system.cpu1.num_cc_register_writes                  2                       # number of times the CC registers were written
system.cpu1.num_conditional_control_insts            1                       # number of instructions that are conditional controls
system.cpu1.num_fp_alu_accesses                    20                       # Number of float alu accesses
system.cpu1.num_fp_insts                           20                       # number of float instructions
system.cpu1.num_fp_register_reads                  43                       # number of times the floating registers were read
system.cpu1.num_fp_register_writes                 19                       # number of times the floating registers were written
system.cpu1.num_func_calls                          0                       # number of times a function call or return occured
system.cpu1.num_idle_cycles                         0                       # Number of idle cycles
system.cpu1.num_int_alu_accesses                    5                       # Number of integer alu accesses
system.cpu1.num_int_insts                           5                       # number of integer instructions
system.cpu1.num_int_register_reads                 10                       # number of times the integer registers were read
system.cpu1.num_int_register_writes                 2                       # number of times the integer registers were written
system.cpu1.num_load_insts                          2                       # Number of load instructions
system.cpu1.num_mem_refs                            2                       # number of memory refs
system.cpu1.num_store_insts                         0                       # Number of store instructions
system.cpu1.num_vec_alu_accesses                    0                       # Number of vector alu accesses
system.cpu1.num_vec_insts                           0                       # number of vector instructions
system.cpu1.num_vec_register_reads                  0                       # number of times the vector registers were read
system.cpu1.num_vec_register_writes                 0                       # number of times the vector registers were written
system.cpu1.op_class::No_OpClass                    0      0.00%      0.00% # Class of executed instruction
system.cpu1.op_class::IntAlu                        7     30.43%     30.43% # Class of executed instruction
system.cpu1.op_class::IntMult                       0      0.00%     30.43% # Class of executed instruction
system.cpu1.op_class::IntDiv                        0      0.00%     30.43% # Class of executed instruction
system.cpu1.op_class::FloatAdd                      2      8.70%     39.13% # Class of executed instruction
system.cpu1.op_class::FloatCmp                      0      0.00%     39.13% # Class of executed instruction
system.cpu1.op_class::FloatCvt                      0      0.00%     39.13% # Class of executed instruction
system.cpu1.op_class::FloatMult                     0      0.00%     39.13% # Class of executed instruction
system.cpu1.op_class::FloatMultAcc                  0      0.00%     39.13% # Class of executed instruction
system.cpu1.op_class::FloatDiv                      0      0.00%     39.13% # Class of executed instruction
system.cpu1.op_class::FloatMisc                     0      0.00%     39.13% # Class of executed instruction
system.cpu1.op_class::FloatSqrt                     0      0.00%     39.13% # Class of executed instruction
system.cpu1.op_class::SimdAdd                       0      0.00%     39.13% # Class of executed instruction
system.cpu1.op_class::SimdAddAcc                    0      0.00%     39.13% # Class of executed instruction
system.cpu1.op_class::SimdAlu                       0      0.00%     39.13% # Class of executed instruction
system.cpu1.op_class::SimdCmp                       0      0.00%     39.13% # Class of executed instruction
system.cpu1.op_class::SimdCvt                       0      0.00%     39.13% # Class of executed instruction
system.cpu1.op_class::SimdMisc                      0      0.00%     39.13% # Class of executed instruction
system.cpu1.op_class::SimdMult                      0      0.00%     39.13% # Class of executed instruction
system.cpu1.op_class::SimdMultAcc                   0      0.00%     39.13% # Class of executed instruction
system.cpu1.op_class::SimdShift                     0      0.00%     39.13% # Class of executed instruction
system.cpu1.op_class::SimdShiftAcc                  0      0.00%     39.13% # Class of executed instruction
system.cpu1.op_class::SimdDiv                       0      0.00%     39.13% # Class of executed instruction
system.cpu1.op_class::SimdSqrt                      0      0.00%     39.13% # Class of executed instruction
system.cpu1.op_class::SimdFloatAdd                  5     21.74%     60.87% # Class of executed instruction
system.cpu1.op_class::SimdFloatAlu                  0      0.00%     60.87% # Class of executed instruction
system.cpu1.op_class::SimdFloatCmp                  1      4.35%     65.22% # Class of executed instruction
system.cpu1.op_class::SimdFloatCvt                  1      4.35%     69.57% # Class of executed instruction
system.cpu1.op_class::SimdFloatDiv                  0      0.00%     69.57% # Class of executed instruction
system.cpu1.op_class::SimdFloatMisc                 0      0.00%     69.57% # Class of executed instruction
system.cpu1.op_class::SimdFloatMult                 5     21.74%     91.30% # Class of executed instruction
system.cpu1.op_class::SimdFloatMultAcc              0      0.00%     91.30% # Class of executed instruction
system.cpu1.op_class::SimdFloatSqrt                 0      0.00%     91.30% # Class of executed instruction
system.cpu1.op_class::SimdReduceAdd                 0      0.00%     91.30% # Class of executed instruction
system.cpu1.op_class::SimdReduceAlu                 0      0.00%     91.30% # Class of executed instruction
system.cpu1.op_class::SimdReduceCmp                 0      0.00%     91.30% # Class of executed instruction
system.cpu1.op_class::SimdFloatReduceAdd            0      0.00%     91.30% # Class of executed instruction
system.cpu1.op_class::SimdFloatReduceCmp            0      0.00%     91.30% # Class of executed instruction
system.cpu1.op_class::SimdAes                       0      0.00%     91.30% # Class of executed instruction
system.cpu1.op_class::SimdAesMix                    0      0.00%     91.30% # Class of executed instruction
system.cpu1.op_class::SimdSha1Hash                  0      0.00%     91.30% # Class of executed instruction
system.cpu1.op_class::SimdSha1Hash2                 0      0.00%     91.30% # Class of executed instruction
system.cpu1.op_class::SimdSha256Hash                0      0.00%     91.30% # Class of executed instruction
system.cpu1.op_class::SimdSha256Hash2               0      0.00%     91.30% # Class of executed instruction
system.cpu1.op_class::SimdShaSigma2                 0      0.00%     91.30% # Class of executed instruction
system.cpu1.op_class::SimdShaSigma3                 0      0.00%     91.30% # Class of executed instruction
system.cpu1.op_class::SimdPredAlu                   0      0.00%     91.30% # Class of executed instruction
system.cpu1.op_class::MemRead                       0      0.00%     91.30% # Class of executed instruction
system.cpu1.op_class::MemWrite                      0      0.00%     91.30% # Class of executed instruction
system.cpu1.op_class::FloatMemRead                  2      8.70%    100.00% # Class of executed instruction
system.cpu1.op_class::FloatMemWrite                 0      0.00%    100.00% # Class of executed instruction
system.cpu1.op_class::IprAccess                     0      0.00%    100.00% # Class of executed instruction
system.cpu1.op_class::InstPrefetch                  0      0.00%    100.00% # Class of executed instruction
system.cpu1.op_class::total                        23                       # Class of executed instruction
system.cpu1.workload.numSyscalls                    0                       # Number of system calls
system.cpu2.Branches                                1                       # Number of branches fetched
system.cpu2.committedInsts                         16                       # Number of instructions committed
system.cpu2.committedOps                           23                       # Number of ops (including micro ops) committed
system.cpu2.idle_fraction                           0                       # Percentage of idle cycles
system.cpu2.l2bus.snoop_filter.hit_multi_requests           17                       # Number of requests hitting in the snoop filter with multiple (>1) holders of the requested data.
system.cpu2.l2bus.snoop_filter.hit_multi_snoops            2                       # Number of snoops hitting in the snoop filter with multiple (>1) holders of the requested data.
system.cpu2.l2bus.snoop_filter.hit_single_requests     12104579                       # Number of requests hitting in the snoop filter with a single holder of the requested data.
system.cpu2.l2bus.snoop_filter.hit_single_snoops      6997146                       # Number of snoops hitting in the snoop filter with a single holder of the requested data.
system.cpu2.l2bus.snoop_filter.tot_requests     24202196                       # Total number of requests made to the snoop filter.
system.cpu2.l2bus.snoop_filter.tot_snoops      6997148                       # Total number of snoops made to the snoop filter.
system.cpu2.mmucache.mmubus.snoop_filter.hit_multi_requests            0                       # Number of requests hitting in the snoop filter with multiple (>1) holders of the requested data.
system.cpu2.mmucache.mmubus.snoop_filter.hit_multi_snoops            0                       # Number of snoops hitting in the snoop filter with multiple (>1) holders of the requested data.
system.cpu2.mmucache.mmubus.snoop_filter.hit_single_requests            0                       # Number of requests hitting in the snoop filter with a single holder of the requested data.
system.cpu2.mmucache.mmubus.snoop_filter.hit_single_snoops            0                       # Number of snoops hitting in the snoop filter with a single holder of the requested data.
system.cpu2.mmucache.mmubus.snoop_filter.tot_requests            0                       # Total number of requests made to the snoop filter.
system.cpu2.mmucache.mmubus.snoop_filter.tot_snoops            0                       # Total number of snoops made to the snoop filter.
system.cpu2.not_idle_fraction                       1                       # Percentage of non-idle cycles
system.cpu2.numCycles                              31                       # number of cpu cycles simulated
system.cpu2.numWorkItemsCompleted                   0                       # number of work items this cpu completed
system.cpu2.numWorkItemsStarted                     0                       # number of work items this cpu started
system.cpu2.num_busy_cycles                        31                       # Number of busy cycles
system.cpu2.num_cc_register_reads                   7                       # number of times the CC registers were read
system.cpu2.num_cc_register_writes                  2                       # number of times the CC registers were written
system.cpu2.num_conditional_control_insts            1                       # number of instructions that are conditional controls
system.cpu2.num_fp_alu_accesses                    20                       # Number of float alu accesses
system.cpu2.num_fp_insts                           20                       # number of float instructions
system.cpu2.num_fp_register_reads                  43                       # number of times the floating registers were read
system.cpu2.num_fp_register_writes                 19                       # number of times the floating registers were written
system.cpu2.num_func_calls                          0                       # number of times a function call or return occured
system.cpu2.num_idle_cycles                         0                       # Number of idle cycles
system.cpu2.num_int_alu_accesses                    5                       # Number of integer alu accesses
system.cpu2.num_int_insts                           5                       # number of integer instructions
system.cpu2.num_int_register_reads                 10                       # number of times the integer registers were read
system.cpu2.num_int_register_writes                 2                       # number of times the integer registers were written
system.cpu2.num_load_insts                          2                       # Number of load instructions
system.cpu2.num_mem_refs                            2                       # number of memory refs
system.cpu2.num_store_insts                         0                       # Number of store instructions
system.cpu2.num_vec_alu_accesses                    0                       # Number of vector alu accesses
system.cpu2.num_vec_insts                           0                       # number of vector instructions
system.cpu2.num_vec_register_reads                  0                       # number of times the vector registers were read
system.cpu2.num_vec_register_writes                 0                       # number of times the vector registers were written
system.cpu2.op_class::No_OpClass                    0      0.00%      0.00% # Class of executed instruction
system.cpu2.op_class::IntAlu                        7     30.43%     30.43% # Class of executed instruction
system.cpu2.op_class::IntMult                       0      0.00%     30.43% # Class of executed instruction
system.cpu2.op_class::IntDiv                        0      0.00%     30.43% # Class of executed instruction
system.cpu2.op_class::FloatAdd                      2      8.70%     39.13% # Class of executed instruction
system.cpu2.op_class::FloatCmp                      0      0.00%     39.13% # Class of executed instruction
system.cpu2.op_class::FloatCvt                      0      0.00%     39.13% # Class of executed instruction
system.cpu2.op_class::FloatMult                     0      0.00%     39.13% # Class of executed instruction
system.cpu2.op_class::FloatMultAcc                  0      0.00%     39.13% # Class of executed instruction
system.cpu2.op_class::FloatDiv                      0      0.00%     39.13% # Class of executed instruction
system.cpu2.op_class::FloatMisc                     0      0.00%     39.13% # Class of executed instruction
system.cpu2.op_class::FloatSqrt                     0      0.00%     39.13% # Class of executed instruction
system.cpu2.op_class::SimdAdd                       0      0.00%     39.13% # Class of executed instruction
system.cpu2.op_class::SimdAddAcc                    0      0.00%     39.13% # Class of executed instruction
system.cpu2.op_class::SimdAlu                       0      0.00%     39.13% # Class of executed instruction
system.cpu2.op_class::SimdCmp                       0      0.00%     39.13% # Class of executed instruction
system.cpu2.op_class::SimdCvt                       0      0.00%     39.13% # Class of executed instruction
system.cpu2.op_class::SimdMisc                      0      0.00%     39.13% # Class of executed instruction
system.cpu2.op_class::SimdMult                      0      0.00%     39.13% # Class of executed instruction
system.cpu2.op_class::SimdMultAcc                   0      0.00%     39.13% # Class of executed instruction
system.cpu2.op_class::SimdShift                     0      0.00%     39.13% # Class of executed instruction
system.cpu2.op_class::SimdShiftAcc                  0      0.00%     39.13% # Class of executed instruction
system.cpu2.op_class::SimdDiv                       0      0.00%     39.13% # Class of executed instruction
system.cpu2.op_class::SimdSqrt                      0      0.00%     39.13% # Class of executed instruction
system.cpu2.op_class::SimdFloatAdd                  5     21.74%     60.87% # Class of executed instruction
system.cpu2.op_class::SimdFloatAlu                  0      0.00%     60.87% # Class of executed instruction
system.cpu2.op_class::SimdFloatCmp                  1      4.35%     65.22% # Class of executed instruction
system.cpu2.op_class::SimdFloatCvt                  1      4.35%     69.57% # Class of executed instruction
system.cpu2.op_class::SimdFloatDiv                  0      0.00%     69.57% # Class of executed instruction
system.cpu2.op_class::SimdFloatMisc                 0      0.00%     69.57% # Class of executed instruction
system.cpu2.op_class::SimdFloatMult                 5     21.74%     91.30% # Class of executed instruction
system.cpu2.op_class::SimdFloatMultAcc              0      0.00%     91.30% # Class of executed instruction
system.cpu2.op_class::SimdFloatSqrt                 0      0.00%     91.30% # Class of executed instruction
system.cpu2.op_class::SimdReduceAdd                 0      0.00%     91.30% # Class of executed instruction
system.cpu2.op_class::SimdReduceAlu                 0      0.00%     91.30% # Class of executed instruction
system.cpu2.op_class::SimdReduceCmp                 0      0.00%     91.30% # Class of executed instruction
system.cpu2.op_class::SimdFloatReduceAdd            0      0.00%     91.30% # Class of executed instruction
system.cpu2.op_class::SimdFloatReduceCmp            0      0.00%     91.30% # Class of executed instruction
system.cpu2.op_class::SimdAes                       0      0.00%     91.30% # Class of executed instruction
system.cpu2.op_class::SimdAesMix                    0      0.00%     91.30% # Class of executed instruction
system.cpu2.op_class::SimdSha1Hash                  0      0.00%     91.30% # Class of executed instruction
system.cpu2.op_class::SimdSha1Hash2                 0      0.00%     91.30% # Class of executed instruction
system.cpu2.op_class::SimdSha256Hash                0      0.00%     91.30% # Class of executed instruction
system.cpu2.op_class::SimdSha256Hash2               0      0.00%     91.30% # Class of executed instruction
system.cpu2.op_class::SimdShaSigma2                 0      0.00%     91.30% # Class of executed instruction
system.cpu2.op_class::SimdShaSigma3                 0      0.00%     91.30% # Class of executed instruction
system.cpu2.op_class::SimdPredAlu                   0      0.00%     91.30% # Class of executed instruction
system.cpu2.op_class::MemRead                       0      0.00%     91.30% # Class of executed instruction
system.cpu2.op_class::MemWrite                      0      0.00%     91.30% # Class of executed instruction
system.cpu2.op_class::FloatMemRead                  2      8.70%    100.00% # Class of executed instruction
system.cpu2.op_class::FloatMemWrite                 0      0.00%    100.00% # Class of executed instruction
system.cpu2.op_class::IprAccess                     0      0.00%    100.00% # Class of executed instruction
system.cpu2.op_class::InstPrefetch                  0      0.00%    100.00% # Class of executed instruction
system.cpu2.op_class::total                        23                       # Class of executed instruction
system.cpu2.workload.numSyscalls                    0                       # Number of system calls
system.cpu3.Branches                                1                       # Number of branches fetched
system.cpu3.committedInsts                         16                       # Number of instructions committed
system.cpu3.committedOps                           23                       # Number of ops (including micro ops) committed
system.cpu3.idle_fraction                           0                       # Percentage of idle cycles
system.cpu3.l2bus.snoop_filter.hit_multi_requests           20                       # Number of requests hitting in the snoop filter with multiple (>1) holders of the requested data.
system.cpu3.l2bus.snoop_filter.hit_multi_snoops            0                       # Number of snoops hitting in the snoop filter with multiple (>1) holders of the requested data.
system.cpu3.l2bus.snoop_filter.hit_single_requests     12234518                       # Number of requests hitting in the snoop filter with a single holder of the requested data.
system.cpu3.l2bus.snoop_filter.hit_single_snoops         3871                       # Number of snoops hitting in the snoop filter with a single holder of the requested data.
system.cpu3.l2bus.snoop_filter.tot_requests     24466699                       # Total number of requests made to the snoop filter.
system.cpu3.l2bus.snoop_filter.tot_snoops         3871                       # Total number of snoops made to the snoop filter.
system.cpu3.mmucache.mmubus.snoop_filter.hit_multi_requests            0                       # Number of requests hitting in the snoop filter with multiple (>1) holders of the requested data.
system.cpu3.mmucache.mmubus.snoop_filter.hit_multi_snoops            0                       # Number of snoops hitting in the snoop filter with multiple (>1) holders of the requested data.
system.cpu3.mmucache.mmubus.snoop_filter.hit_single_requests            0                       # Number of requests hitting in the snoop filter with a single holder of the requested data.
system.cpu3.mmucache.mmubus.snoop_filter.hit_single_snoops            0                       # Number of snoops hitting in the snoop filter with a single holder of the requested data.
system.cpu3.mmucache.mmubus.snoop_filter.tot_requests            0                       # Total number of requests made to the snoop filter.
system.cpu3.mmucache.mmubus.snoop_filter.tot_snoops            0                       # Total number of snoops made to the snoop filter.
system.cpu3.not_idle_fraction                       1                       # Percentage of non-idle cycles
system.cpu3.numCycles                              31                       # number of cpu cycles simulated
system.cpu3.numWorkItemsCompleted                   0                       # number of work items this cpu completed
system.cpu3.numWorkItemsStarted                     0                       # number of work items this cpu started
system.cpu3.num_busy_cycles                        31                       # Number of busy cycles
system.cpu3.num_cc_register_reads                   7                       # number of times the CC registers were read
system.cpu3.num_cc_register_writes                  2                       # number of times the CC registers were written
system.cpu3.num_conditional_control_insts            1                       # number of instructions that are conditional controls
system.cpu3.num_fp_alu_accesses                    20                       # Number of float alu accesses
system.cpu3.num_fp_insts                           20                       # number of float instructions
system.cpu3.num_fp_register_reads                  43                       # number of times the floating registers were read
system.cpu3.num_fp_register_writes                 19                       # number of times the floating registers were written
system.cpu3.num_func_calls                          0                       # number of times a function call or return occured
system.cpu3.num_idle_cycles                         0                       # Number of idle cycles
system.cpu3.num_int_alu_accesses                    5                       # Number of integer alu accesses
system.cpu3.num_int_insts                           5                       # number of integer instructions
system.cpu3.num_int_register_reads                 10                       # number of times the integer registers were read
system.cpu3.num_int_register_writes                 2                       # number of times the integer registers were written
system.cpu3.num_load_insts                          2                       # Number of load instructions
system.cpu3.num_mem_refs                            2                       # number of memory refs
system.cpu3.num_store_insts                         0                       # Number of store instructions
system.cpu3.num_vec_alu_accesses                    0                       # Number of vector alu accesses
system.cpu3.num_vec_insts                           0                       # number of vector instructions
system.cpu3.num_vec_register_reads                  0                       # number of times the vector registers were read
system.cpu3.num_vec_register_writes                 0                       # number of times the vector registers were written
system.cpu3.op_class::No_OpClass                    0      0.00%      0.00% # Class of executed instruction
system.cpu3.op_class::IntAlu                        7     30.43%     30.43% # Class of executed instruction
system.cpu3.op_class::IntMult                       0      0.00%     30.43% # Class of executed instruction
system.cpu3.op_class::IntDiv                        0      0.00%     30.43% # Class of executed instruction
system.cpu3.op_class::FloatAdd                      2      8.70%     39.13% # Class of executed instruction
system.cpu3.op_class::FloatCmp                      0      0.00%     39.13% # Class of executed instruction
system.cpu3.op_class::FloatCvt                      0      0.00%     39.13% # Class of executed instruction
system.cpu3.op_class::FloatMult                     0      0.00%     39.13% # Class of executed instruction
system.cpu3.op_class::FloatMultAcc                  0      0.00%     39.13% # Class of executed instruction
system.cpu3.op_class::FloatDiv                      0      0.00%     39.13% # Class of executed instruction
system.cpu3.op_class::FloatMisc                     0      0.00%     39.13% # Class of executed instruction
system.cpu3.op_class::FloatSqrt                     0      0.00%     39.13% # Class of executed instruction
system.cpu3.op_class::SimdAdd                       0      0.00%     39.13% # Class of executed instruction
system.cpu3.op_class::SimdAddAcc                    0      0.00%     39.13% # Class of executed instruction
system.cpu3.op_class::SimdAlu                       0      0.00%     39.13% # Class of executed instruction
system.cpu3.op_class::SimdCmp                       0      0.00%     39.13% # Class of executed instruction
system.cpu3.op_class::SimdCvt                       0      0.00%     39.13% # Class of executed instruction
system.cpu3.op_class::SimdMisc                      0      0.00%     39.13% # Class of executed instruction
system.cpu3.op_class::SimdMult                      0      0.00%     39.13% # Class of executed instruction
system.cpu3.op_class::SimdMultAcc                   0      0.00%     39.13% # Class of executed instruction
system.cpu3.op_class::SimdShift                     0      0.00%     39.13% # Class of executed instruction
system.cpu3.op_class::SimdShiftAcc                  0      0.00%     39.13% # Class of executed instruction
system.cpu3.op_class::SimdDiv                       0      0.00%     39.13% # Class of executed instruction
system.cpu3.op_class::SimdSqrt                      0      0.00%     39.13% # Class of executed instruction
system.cpu3.op_class::SimdFloatAdd                  5     21.74%     60.87% # Class of executed instruction
system.cpu3.op_class::SimdFloatAlu                  0      0.00%     60.87% # Class of executed instruction
system.cpu3.op_class::SimdFloatCmp                  1      4.35%     65.22% # Class of executed instruction
system.cpu3.op_class::SimdFloatCvt                  1      4.35%     69.57% # Class of executed instruction
system.cpu3.op_class::SimdFloatDiv                  0      0.00%     69.57% # Class of executed instruction
system.cpu3.op_class::SimdFloatMisc                 0      0.00%     69.57% # Class of executed instruction
system.cpu3.op_class::SimdFloatMult                 5     21.74%     91.30% # Class of executed instruction
system.cpu3.op_class::SimdFloatMultAcc              0      0.00%     91.30% # Class of executed instruction
system.cpu3.op_class::SimdFloatSqrt                 0      0.00%     91.30% # Class of executed instruction
system.cpu3.op_class::SimdReduceAdd                 0      0.00%     91.30% # Class of executed instruction
system.cpu3.op_class::SimdReduceAlu                 0      0.00%     91.30% # Class of executed instruction
system.cpu3.op_class::SimdReduceCmp                 0      0.00%     91.30% # Class of executed instruction
system.cpu3.op_class::SimdFloatReduceAdd            0      0.00%     91.30% # Class of executed instruction
system.cpu3.op_class::SimdFloatReduceCmp            0      0.00%     91.30% # Class of executed instruction
system.cpu3.op_class::SimdAes                       0      0.00%     91.30% # Class of executed instruction
system.cpu3.op_class::SimdAesMix                    0      0.00%     91.30% # Class of executed instruction
system.cpu3.op_class::SimdSha1Hash                  0      0.00%     91.30% # Class of executed instruction
system.cpu3.op_class::SimdSha1Hash2                 0      0.00%     91.30% # Class of executed instruction
system.cpu3.op_class::SimdSha256Hash                0      0.00%     91.30% # Class of executed instruction
system.cpu3.op_class::SimdSha256Hash2               0      0.00%     91.30% # Class of executed instruction
system.cpu3.op_class::SimdShaSigma2                 0      0.00%     91.30% # Class of executed instruction
system.cpu3.op_class::SimdShaSigma3                 0      0.00%     91.30% # Class of executed instruction
system.cpu3.op_class::SimdPredAlu                   0      0.00%     91.30% # Class of executed instruction
system.cpu3.op_class::MemRead                       0      0.00%     91.30% # Class of executed instruction
system.cpu3.op_class::MemWrite                      0      0.00%     91.30% # Class of executed instruction
system.cpu3.op_class::FloatMemRead                  2      8.70%    100.00% # Class of executed instruction
system.cpu3.op_class::FloatMemWrite                 0      0.00%    100.00% # Class of executed instruction
system.cpu3.op_class::IprAccess                     0      0.00%    100.00% # Class of executed instruction
system.cpu3.op_class::InstPrefetch                  0      0.00%    100.00% # Class of executed instruction
system.cpu3.op_class::total                        23                       # Class of executed instruction
system.cpu3.workload.numSyscalls                    0                       # Number of system calls
system.l3bus.snoop_filter.hit_multi_requests            0                       # Number of requests hitting in the snoop filter with multiple (>1) holders of the requested data.
system.l3bus.snoop_filter.hit_multi_snoops            0                       # Number of snoops hitting in the snoop filter with multiple (>1) holders of the requested data.
system.l3bus.snoop_filter.hit_single_requests     43689864                       # Number of requests hitting in the snoop filter with a single holder of the requested data.
system.l3bus.snoop_filter.hit_single_snoops            0                       # Number of snoops hitting in the snoop filter with a single holder of the requested data.
system.l3bus.snoop_filter.tot_requests       87312410                       # Total number of requests made to the snoop filter.
system.l3bus.snoop_filter.tot_snoops                0                       # Total number of snoops made to the snoop filter.
system.membus.snoop_filter.hit_multi_requests            0                       # Number of requests hitting in the snoop filter with multiple (>1) holders of the requested data.
system.membus.snoop_filter.hit_multi_snoops            0                       # Number of snoops hitting in the snoop filter with multiple (>1) holders of the requested data.
system.membus.snoop_filter.hit_single_requests     34596606                       # Number of requests hitting in the snoop filter with a single holder of the requested data.
system.membus.snoop_filter.hit_single_snoops            0                       # Number of snoops hitting in the snoop filter with a single holder of the requested data.
system.membus.snoop_filter.tot_requests      69262893                       # Total number of requests made to the snoop filter.
system.membus.snoop_filter.tot_snoops               0                       # Total number of snoops made to the snoop filter.
system.switch_cpus0.cc_regfile_reads        195189748                       # number of cc regfile reads
system.switch_cpus0.cc_regfile_writes       121482471                       # number of cc regfile writes
system.switch_cpus0.committedInsts          243129233                       # Number of Instructions Simulated
system.switch_cpus0.committedOps            434314101                       # Number of Ops (including micro ops) Simulated
system.switch_cpus0.cpi                      6.759708                       # CPI: Cycles Per Instruction
system.switch_cpus0.cpi_total                6.759708                       # CPI: Total CPI of All Threads
system.switch_cpus0.fp_regfile_reads        373041327                       # number of floating regfile reads
system.switch_cpus0.fp_regfile_writes       280752572                       # number of floating regfile writes
system.switch_cpus0.idleCycles                  45791                       # Total number of cycles that the CPU has spent unscheduled due to idling
system.switch_cpus0.iew.branchMispredicts       620916                       # Number of branch mispredicts detected at execute
system.switch_cpus0.iew.exec_branches        28737436                       # Number of branches executed
system.switch_cpus0.iew.exec_nop                    0                       # number of nop insts executed
system.switch_cpus0.iew.exec_rate            0.358801                       # Inst execution rate
system.switch_cpus0.iew.exec_refs           184219156                       # number of memory reference insts executed
system.switch_cpus0.iew.exec_stores          63875463                       # Number of stores executed
system.switch_cpus0.iew.exec_swp                    0                       # number of swp insts executed
system.switch_cpus0.iew.iewBlockCycles      302946964                       # Number of cycles IEW is blocking
system.switch_cpus0.iew.iewDispLoadInsts    113622074                       # Number of dispatched load instructions
system.switch_cpus0.iew.iewDispNonSpecInsts           94                       # Number of dispatched non-speculative instructions
system.switch_cpus0.iew.iewDispSquashedInsts        10087                       # Number of squashed instructions skipped by dispatch
system.switch_cpus0.iew.iewDispStoreInsts     65380620                       # Number of dispatched store instructions
system.switch_cpus0.iew.iewDispatchedInsts    592397002                       # Number of instructions dispatched to IQ
system.switch_cpus0.iew.iewExecLoadInsts    120343693                       # Number of load instructions executed
system.switch_cpus0.iew.iewExecSquashedInsts      1269008                       # Number of squashed instructions skipped in execute
system.switch_cpus0.iew.iewExecutedInsts    589683888                       # Number of executed instructions
system.switch_cpus0.iew.iewIQFullEvents       1713945                       # Number of times the IQ has become full, causing a stall
system.switch_cpus0.iew.iewIdleCycles               0                       # Number of cycles IEW is idle
system.switch_cpus0.iew.iewLSQFullEvents    334261615                       # Number of times the LSQ has become full, causing a stall
system.switch_cpus0.iew.iewSquashCycles       1654496                       # Number of cycles IEW is squashing
system.switch_cpus0.iew.iewUnblockCycles    336954207                       # Number of cycles IEW is unblocking
system.switch_cpus0.iew.memOrderViolationEvents         6818                       # Number of memory order violations
system.switch_cpus0.iew.predictedNotTakenIncorrect       310536                       # Number of branches that were predicted not taken incorrectly
system.switch_cpus0.iew.predictedTakenIncorrect       310380                       # Number of branches that were predicted taken incorrectly
system.switch_cpus0.iew.wb_consumers        542217354                       # num instructions consuming a value
system.switch_cpus0.iew.wb_count            566195670                       # cumulative count of insts written-back
system.switch_cpus0.iew.wb_fanout            0.618903                       # average fanout of values written-back
system.switch_cpus0.iew.wb_producers        335580045                       # num instructions producing a value
system.switch_cpus0.iew.wb_rate              0.344510                       # insts written-back per cycle
system.switch_cpus0.iew.wb_sent             579203312                       # cumulative count of insts sent to commit
system.switch_cpus0.int_regfile_reads       583326307                       # number of integer regfile reads
system.switch_cpus0.int_regfile_writes      187497034                       # number of integer regfile writes
system.switch_cpus0.ipc                      0.147935                       # IPC: Instructions Per Cycle
system.switch_cpus0.ipc_total                0.147935                       # IPC: Total IPC of All Threads
system.switch_cpus0.iq.FU_type_0::No_OpClass     13013420      2.20%      2.20% # Type of FU issued
system.switch_cpus0.iq.FU_type_0::IntAlu    244487619     41.37%     43.57% # Type of FU issued
system.switch_cpus0.iq.FU_type_0::IntMult            0      0.00%     43.57% # Type of FU issued
system.switch_cpus0.iq.FU_type_0::IntDiv            0      0.00%     43.57% # Type of FU issued
system.switch_cpus0.iq.FU_type_0::FloatAdd     71663304     12.13%     55.70% # Type of FU issued
system.switch_cpus0.iq.FU_type_0::FloatCmp            0      0.00%     55.70% # Type of FU issued
system.switch_cpus0.iq.FU_type_0::FloatCvt            0      0.00%     55.70% # Type of FU issued
system.switch_cpus0.iq.FU_type_0::FloatMult            0      0.00%     55.70% # Type of FU issued
system.switch_cpus0.iq.FU_type_0::FloatMultAcc            0      0.00%     55.70% # Type of FU issued
system.switch_cpus0.iq.FU_type_0::FloatDiv            0      0.00%     55.70% # Type of FU issued
system.switch_cpus0.iq.FU_type_0::FloatMisc            0      0.00%     55.70% # Type of FU issued
system.switch_cpus0.iq.FU_type_0::FloatSqrt            0      0.00%     55.70% # Type of FU issued
system.switch_cpus0.iq.FU_type_0::SimdAdd            0      0.00%     55.70% # Type of FU issued
system.switch_cpus0.iq.FU_type_0::SimdAddAcc            0      0.00%     55.70% # Type of FU issued
system.switch_cpus0.iq.FU_type_0::SimdAlu        49338      0.01%     55.71% # Type of FU issued
system.switch_cpus0.iq.FU_type_0::SimdCmp            0      0.00%     55.71% # Type of FU issued
system.switch_cpus0.iq.FU_type_0::SimdCvt            0      0.00%     55.71% # Type of FU issued
system.switch_cpus0.iq.FU_type_0::SimdMisc            0      0.00%     55.71% # Type of FU issued
system.switch_cpus0.iq.FU_type_0::SimdMult            0      0.00%     55.71% # Type of FU issued
system.switch_cpus0.iq.FU_type_0::SimdMultAcc            0      0.00%     55.71% # Type of FU issued
system.switch_cpus0.iq.FU_type_0::SimdShift            0      0.00%     55.71% # Type of FU issued
system.switch_cpus0.iq.FU_type_0::SimdShiftAcc            0      0.00%     55.71% # Type of FU issued
system.switch_cpus0.iq.FU_type_0::SimdDiv            0      0.00%     55.71% # Type of FU issued
system.switch_cpus0.iq.FU_type_0::SimdSqrt            0      0.00%     55.71% # Type of FU issued
system.switch_cpus0.iq.FU_type_0::SimdFloatAdd     28051229      4.75%     60.46% # Type of FU issued
system.switch_cpus0.iq.FU_type_0::SimdFloatAlu            0      0.00%     60.46% # Type of FU issued
system.switch_cpus0.iq.FU_type_0::SimdFloatCmp     28940907      4.90%     65.35% # Type of FU issued
system.switch_cpus0.iq.FU_type_0::SimdFloatCvt      5545267      0.94%     66.29% # Type of FU issued
system.switch_cpus0.iq.FU_type_0::SimdFloatDiv            0      0.00%     66.29% # Type of FU issued
system.switch_cpus0.iq.FU_type_0::SimdFloatMisc            0      0.00%     66.29% # Type of FU issued
system.switch_cpus0.iq.FU_type_0::SimdFloatMult     14660262      2.48%     68.77% # Type of FU issued
system.switch_cpus0.iq.FU_type_0::SimdFloatMultAcc            0      0.00%     68.77% # Type of FU issued
system.switch_cpus0.iq.FU_type_0::SimdFloatSqrt            0      0.00%     68.77% # Type of FU issued
system.switch_cpus0.iq.FU_type_0::SimdReduceAdd            0      0.00%     68.77% # Type of FU issued
system.switch_cpus0.iq.FU_type_0::SimdReduceAlu            0      0.00%     68.77% # Type of FU issued
system.switch_cpus0.iq.FU_type_0::SimdReduceCmp            0      0.00%     68.77% # Type of FU issued
system.switch_cpus0.iq.FU_type_0::SimdFloatReduceAdd            0      0.00%     68.77% # Type of FU issued
system.switch_cpus0.iq.FU_type_0::SimdFloatReduceCmp            0      0.00%     68.77% # Type of FU issued
system.switch_cpus0.iq.FU_type_0::SimdAes            0      0.00%     68.77% # Type of FU issued
system.switch_cpus0.iq.FU_type_0::SimdAesMix            0      0.00%     68.77% # Type of FU issued
system.switch_cpus0.iq.FU_type_0::SimdSha1Hash            0      0.00%     68.77% # Type of FU issued
system.switch_cpus0.iq.FU_type_0::SimdSha1Hash2            0      0.00%     68.77% # Type of FU issued
system.switch_cpus0.iq.FU_type_0::SimdSha256Hash            0      0.00%     68.77% # Type of FU issued
system.switch_cpus0.iq.FU_type_0::SimdSha256Hash2            0      0.00%     68.77% # Type of FU issued
system.switch_cpus0.iq.FU_type_0::SimdShaSigma2            0      0.00%     68.77% # Type of FU issued
system.switch_cpus0.iq.FU_type_0::SimdShaSigma3            0      0.00%     68.77% # Type of FU issued
system.switch_cpus0.iq.FU_type_0::SimdPredAlu            0      0.00%     68.77% # Type of FU issued
system.switch_cpus0.iq.FU_type_0::MemRead     26587582      4.50%     73.27% # Type of FU issued
system.switch_cpus0.iq.FU_type_0::MemWrite     21260956      3.60%     76.87% # Type of FU issued
system.switch_cpus0.iq.FU_type_0::FloatMemRead     93982451     15.90%     92.77% # Type of FU issued
system.switch_cpus0.iq.FU_type_0::FloatMemWrite     42710569      7.23%    100.00% # Type of FU issued
system.switch_cpus0.iq.FU_type_0::IprAccess            0      0.00%    100.00% # Type of FU issued
system.switch_cpus0.iq.FU_type_0::InstPrefetch            0      0.00%    100.00% # Type of FU issued
system.switch_cpus0.iq.FU_type_0::total     590952904                       # Type of FU issued
system.switch_cpus0.iq.fp_alu_accesses      352468422                       # Number of floating point alu accesses
system.switch_cpus0.iq.fp_inst_queue_reads    690233613                       # Number of floating instruction queue reads
system.switch_cpus0.iq.fp_inst_queue_wakeup_accesses    328939725                       # Number of floating instruction queue wakeup accesses
system.switch_cpus0.iq.fp_inst_queue_writes    380632422                       # Number of floating instruction queue writes
system.switch_cpus0.iq.fu_busy_cnt           24506346                       # FU busy when requested
system.switch_cpus0.iq.fu_busy_rate          0.041469                       # FU busy rate (busy events/executed inst)
system.switch_cpus0.iq.fu_full::No_OpClass            0      0.00%      0.00% # attempts to use FU when none available
system.switch_cpus0.iq.fu_full::IntAlu        1147864      4.68%      4.68% # attempts to use FU when none available
system.switch_cpus0.iq.fu_full::IntMult             0      0.00%      4.68% # attempts to use FU when none available
system.switch_cpus0.iq.fu_full::IntDiv              0      0.00%      4.68% # attempts to use FU when none available
system.switch_cpus0.iq.fu_full::FloatAdd        19549      0.08%      4.76% # attempts to use FU when none available
system.switch_cpus0.iq.fu_full::FloatCmp            0      0.00%      4.76% # attempts to use FU when none available
system.switch_cpus0.iq.fu_full::FloatCvt            0      0.00%      4.76% # attempts to use FU when none available
system.switch_cpus0.iq.fu_full::FloatMult            0      0.00%      4.76% # attempts to use FU when none available
system.switch_cpus0.iq.fu_full::FloatMultAcc            0      0.00%      4.76% # attempts to use FU when none available
system.switch_cpus0.iq.fu_full::FloatDiv            0      0.00%      4.76% # attempts to use FU when none available
system.switch_cpus0.iq.fu_full::FloatMisc            0      0.00%      4.76% # attempts to use FU when none available
system.switch_cpus0.iq.fu_full::FloatSqrt            0      0.00%      4.76% # attempts to use FU when none available
system.switch_cpus0.iq.fu_full::SimdAdd             0      0.00%      4.76% # attempts to use FU when none available
system.switch_cpus0.iq.fu_full::SimdAddAcc            0      0.00%      4.76% # attempts to use FU when none available
system.switch_cpus0.iq.fu_full::SimdAlu             0      0.00%      4.76% # attempts to use FU when none available
system.switch_cpus0.iq.fu_full::SimdCmp             0      0.00%      4.76% # attempts to use FU when none available
system.switch_cpus0.iq.fu_full::SimdCvt             0      0.00%      4.76% # attempts to use FU when none available
system.switch_cpus0.iq.fu_full::SimdMisc            0      0.00%      4.76% # attempts to use FU when none available
system.switch_cpus0.iq.fu_full::SimdMult            0      0.00%      4.76% # attempts to use FU when none available
system.switch_cpus0.iq.fu_full::SimdMultAcc            0      0.00%      4.76% # attempts to use FU when none available
system.switch_cpus0.iq.fu_full::SimdShift            0      0.00%      4.76% # attempts to use FU when none available
system.switch_cpus0.iq.fu_full::SimdShiftAcc            0      0.00%      4.76% # attempts to use FU when none available
system.switch_cpus0.iq.fu_full::SimdDiv             0      0.00%      4.76% # attempts to use FU when none available
system.switch_cpus0.iq.fu_full::SimdSqrt            0      0.00%      4.76% # attempts to use FU when none available
system.switch_cpus0.iq.fu_full::SimdFloatAdd       206975      0.84%      5.61% # attempts to use FU when none available
system.switch_cpus0.iq.fu_full::SimdFloatAlu            0      0.00%      5.61% # attempts to use FU when none available
system.switch_cpus0.iq.fu_full::SimdFloatCmp       890317      3.63%      9.24% # attempts to use FU when none available
system.switch_cpus0.iq.fu_full::SimdFloatCvt            0      0.00%      9.24% # attempts to use FU when none available
system.switch_cpus0.iq.fu_full::SimdFloatDiv            0      0.00%      9.24% # attempts to use FU when none available
system.switch_cpus0.iq.fu_full::SimdFloatMisc            0      0.00%      9.24% # attempts to use FU when none available
system.switch_cpus0.iq.fu_full::SimdFloatMult        23255      0.09%      9.34% # attempts to use FU when none available
system.switch_cpus0.iq.fu_full::SimdFloatMultAcc            0      0.00%      9.34% # attempts to use FU when none available
system.switch_cpus0.iq.fu_full::SimdFloatSqrt            0      0.00%      9.34% # attempts to use FU when none available
system.switch_cpus0.iq.fu_full::SimdReduceAdd            0      0.00%      9.34% # attempts to use FU when none available
system.switch_cpus0.iq.fu_full::SimdReduceAlu            0      0.00%      9.34% # attempts to use FU when none available
system.switch_cpus0.iq.fu_full::SimdReduceCmp            0      0.00%      9.34% # attempts to use FU when none available
system.switch_cpus0.iq.fu_full::SimdFloatReduceAdd            0      0.00%      9.34% # attempts to use FU when none available
system.switch_cpus0.iq.fu_full::SimdFloatReduceCmp            0      0.00%      9.34% # attempts to use FU when none available
system.switch_cpus0.iq.fu_full::SimdAes             0      0.00%      9.34% # attempts to use FU when none available
system.switch_cpus0.iq.fu_full::SimdAesMix            0      0.00%      9.34% # attempts to use FU when none available
system.switch_cpus0.iq.fu_full::SimdSha1Hash            0      0.00%      9.34% # attempts to use FU when none available
system.switch_cpus0.iq.fu_full::SimdSha1Hash2            0      0.00%      9.34% # attempts to use FU when none available
system.switch_cpus0.iq.fu_full::SimdSha256Hash            0      0.00%      9.34% # attempts to use FU when none available
system.switch_cpus0.iq.fu_full::SimdSha256Hash2            0      0.00%      9.34% # attempts to use FU when none available
system.switch_cpus0.iq.fu_full::SimdShaSigma2            0      0.00%      9.34% # attempts to use FU when none available
system.switch_cpus0.iq.fu_full::SimdShaSigma3            0      0.00%      9.34% # attempts to use FU when none available
system.switch_cpus0.iq.fu_full::SimdPredAlu            0      0.00%      9.34% # attempts to use FU when none available
system.switch_cpus0.iq.fu_full::MemRead       1812745      7.40%     16.73% # attempts to use FU when none available
system.switch_cpus0.iq.fu_full::MemWrite      6846483     27.94%     44.67% # attempts to use FU when none available
system.switch_cpus0.iq.fu_full::FloatMemRead      9856109     40.22%     84.89% # attempts to use FU when none available
system.switch_cpus0.iq.fu_full::FloatMemWrite      3703049     15.11%    100.00% # attempts to use FU when none available
system.switch_cpus0.iq.fu_full::IprAccess            0      0.00%    100.00% # attempts to use FU when none available
system.switch_cpus0.iq.fu_full::InstPrefetch            0      0.00%    100.00% # attempts to use FU when none available
system.switch_cpus0.iq.int_alu_accesses     249977408                       # Number of integer alu accesses
system.switch_cpus0.iq.int_inst_queue_reads   2159793827                       # Number of integer instruction queue reads
system.switch_cpus0.iq.int_inst_queue_wakeup_accesses    237255945                       # Number of integer instruction queue wakeup accesses
system.switch_cpus0.iq.int_inst_queue_writes    369854053                       # Number of integer instruction queue writes
system.switch_cpus0.iq.iqInstsAdded         592387989                       # Number of instructions added to the IQ (excludes non-spec)
system.switch_cpus0.iq.iqInstsIssued        590952904                       # Number of instructions issued
system.switch_cpus0.iq.iqNonSpecInstsAdded         9013                       # Number of non-speculative instructions added to the IQ
system.switch_cpus0.iq.iqSquashedInstsExamined    158082833                       # Number of squashed instructions iterated over during squash; mainly for profiling
system.switch_cpus0.iq.iqSquashedInstsIssued       178568                       # Number of squashed instructions issued
system.switch_cpus0.iq.iqSquashedNonSpecRemoved         8131                       # Number of squashed non-spec instructions that were removed
system.switch_cpus0.iq.iqSquashedOperandsExamined     51495792                       # Number of squashed operands that are examined and possibly removed from graph
system.switch_cpus0.iq.issued_per_cycle::samples   1643436726                       # Number of insts issued each cycle
system.switch_cpus0.iq.issued_per_cycle::mean     0.359584                       # Number of insts issued each cycle
system.switch_cpus0.iq.issued_per_cycle::stdev     1.298792                       # Number of insts issued each cycle
system.switch_cpus0.iq.issued_per_cycle::underflows            0      0.00%      0.00% # Number of insts issued each cycle
system.switch_cpus0.iq.issued_per_cycle::0   1478903239     89.99%     89.99% # Number of insts issued each cycle
system.switch_cpus0.iq.issued_per_cycle::1     40679084      2.48%     92.46% # Number of insts issued each cycle
system.switch_cpus0.iq.issued_per_cycle::2     28235671      1.72%     94.18% # Number of insts issued each cycle
system.switch_cpus0.iq.issued_per_cycle::3     20593915      1.25%     95.43% # Number of insts issued each cycle
system.switch_cpus0.iq.issued_per_cycle::4     20204495      1.23%     96.66% # Number of insts issued each cycle
system.switch_cpus0.iq.issued_per_cycle::5     15592978      0.95%     97.61% # Number of insts issued each cycle
system.switch_cpus0.iq.issued_per_cycle::6     15423673      0.94%     98.55% # Number of insts issued each cycle
system.switch_cpus0.iq.issued_per_cycle::7      9733543      0.59%     99.14% # Number of insts issued each cycle
system.switch_cpus0.iq.issued_per_cycle::8     14070128      0.86%    100.00% # Number of insts issued each cycle
system.switch_cpus0.iq.issued_per_cycle::overflows            0      0.00%    100.00% # Number of insts issued each cycle
system.switch_cpus0.iq.issued_per_cycle::min_value            0                       # Number of insts issued each cycle
system.switch_cpus0.iq.issued_per_cycle::max_value            8                       # Number of insts issued each cycle
system.switch_cpus0.iq.issued_per_cycle::total   1643436726                       # Number of insts issued each cycle
system.switch_cpus0.iq.rate                  0.359574                       # Inst issue rate
system.switch_cpus0.iq.vec_alu_accesses             0                       # Number of vector alu accesses
system.switch_cpus0.iq.vec_inst_queue_reads            0                       # Number of vector instruction queue reads
system.switch_cpus0.iq.vec_inst_queue_wakeup_accesses            0                       # Number of vector instruction queue wakeup accesses
system.switch_cpus0.iq.vec_inst_queue_writes            0                       # Number of vector instruction queue writes
system.switch_cpus0.memDep0.conflictingLoads     16975871                       # Number of conflicting loads.
system.switch_cpus0.memDep0.conflictingStores     16290658                       # Number of conflicting stores.
system.switch_cpus0.memDep0.insertedLoads    113622074                       # Number of loads inserted to the mem dependence unit.
system.switch_cpus0.memDep0.insertedStores     65380620                       # Number of stores inserted to the mem dependence unit.
system.switch_cpus0.misc_regfile_reads      243462851                       # number of misc regfile reads
system.switch_cpus0.misc_regfile_writes             1                       # number of misc regfile writes
system.switch_cpus0.numCycles              1643482517                       # number of cpu cycles simulated
system.switch_cpus0.numWorkItemsCompleted            0                       # number of work items this cpu completed
system.switch_cpus0.numWorkItemsStarted             0                       # number of work items this cpu started
system.switch_cpus0.timesIdled                    148                       # Number of times that the entire CPU went into an idle state and unscheduled itself
system.switch_cpus1.cc_regfile_reads        200009635                       # number of cc regfile reads
system.switch_cpus1.cc_regfile_writes       123682437                       # number of cc regfile writes
system.switch_cpus1.committedInsts          249909071                       # Number of Instructions Simulated
system.switch_cpus1.committedOps            446829389                       # Number of Ops (including micro ops) Simulated
system.switch_cpus1.cpi                      6.576322                       # CPI: Cycles Per Instruction
system.switch_cpus1.cpi_total                6.576322                       # CPI: Total CPI of All Threads
system.switch_cpus1.fp_regfile_reads        381736295                       # number of floating regfile reads
system.switch_cpus1.fp_regfile_writes       287510735                       # number of floating regfile writes
system.switch_cpus1.idleCycles                  41155                       # Total number of cycles that the CPU has spent unscheduled due to idling
system.switch_cpus1.iew.branchMispredicts       646841                       # Number of branch mispredicts detected at execute
system.switch_cpus1.iew.exec_branches        29537840                       # Number of branches executed
system.switch_cpus1.iew.exec_nop                    0                       # number of nop insts executed
system.switch_cpus1.iew.exec_rate            0.366337                       # Inst execution rate
system.switch_cpus1.iew.exec_refs           186926848                       # number of memory reference insts executed
system.switch_cpus1.iew.exec_stores          65051054                       # Number of stores executed
system.switch_cpus1.iew.exec_swp                    0                       # number of swp insts executed
system.switch_cpus1.iew.iewBlockCycles      305779859                       # Number of cycles IEW is blocking
system.switch_cpus1.iew.iewDispLoadInsts    116102921                       # Number of dispatched load instructions
system.switch_cpus1.iew.iewDispNonSpecInsts          121                       # Number of dispatched non-speculative instructions
system.switch_cpus1.iew.iewDispSquashedInsts        10666                       # Number of squashed instructions skipped by dispatch
system.switch_cpus1.iew.iewDispStoreInsts     66606604                       # Number of dispatched store instructions
system.switch_cpus1.iew.iewDispatchedInsts    606063373                       # Number of instructions dispatched to IQ
system.switch_cpus1.iew.iewExecLoadInsts    121875794                       # Number of load instructions executed
system.switch_cpus1.iew.iewExecSquashedInsts      1391918                       # Number of squashed instructions skipped in execute
system.switch_cpus1.iew.iewExecutedInsts    602068576                       # Number of executed instructions
system.switch_cpus1.iew.iewIQFullEvents       1620304                       # Number of times the IQ has become full, causing a stall
system.switch_cpus1.iew.iewIdleCycles               0                       # Number of cycles IEW is idle
system.switch_cpus1.iew.iewLSQFullEvents    343446250                       # Number of times the LSQ has become full, causing a stall
system.switch_cpus1.iew.iewSquashCycles       1686767                       # Number of cycles IEW is squashing
system.switch_cpus1.iew.iewUnblockCycles    345968737                       # Number of cycles IEW is unblocking
system.switch_cpus1.iew.memOrderViolationEvents         7727                       # Number of memory order violations
system.switch_cpus1.iew.predictedNotTakenIncorrect       321337                       # Number of branches that were predicted not taken incorrectly
system.switch_cpus1.iew.predictedTakenIncorrect       325504                       # Number of branches that were predicted taken incorrectly
system.switch_cpus1.iew.wb_consumers        556727789                       # num instructions consuming a value
system.switch_cpus1.iew.wb_count            579438921                       # cumulative count of insts written-back
system.switch_cpus1.iew.wb_fanout            0.618620                       # average fanout of values written-back
system.switch_cpus1.iew.wb_producers        344403172                       # num instructions producing a value
system.switch_cpus1.iew.wb_rate              0.352568                       # insts written-back per cycle
system.switch_cpus1.iew.wb_sent             592587892                       # cumulative count of insts sent to commit
system.switch_cpus1.int_regfile_reads       594430960                       # number of integer regfile reads
system.switch_cpus1.int_regfile_writes      191859150                       # number of integer regfile writes
system.switch_cpus1.ipc                      0.152061                       # IPC: Instructions Per Cycle
system.switch_cpus1.ipc_total                0.152061                       # IPC: Total IPC of All Threads
system.switch_cpus1.iq.FU_type_0::No_OpClass     13174370      2.18%      2.18% # Type of FU issued
system.switch_cpus1.iq.FU_type_0::IntAlu    250239344     41.47%     43.65% # Type of FU issued
system.switch_cpus1.iq.FU_type_0::IntMult            0      0.00%     43.65% # Type of FU issued
system.switch_cpus1.iq.FU_type_0::IntDiv            0      0.00%     43.65% # Type of FU issued
system.switch_cpus1.iq.FU_type_0::FloatAdd     73628180     12.20%     55.85% # Type of FU issued
system.switch_cpus1.iq.FU_type_0::FloatCmp            0      0.00%     55.85% # Type of FU issued
system.switch_cpus1.iq.FU_type_0::FloatCvt            0      0.00%     55.85% # Type of FU issued
system.switch_cpus1.iq.FU_type_0::FloatMult            0      0.00%     55.85% # Type of FU issued
system.switch_cpus1.iq.FU_type_0::FloatMultAcc            0      0.00%     55.85% # Type of FU issued
system.switch_cpus1.iq.FU_type_0::FloatDiv            0      0.00%     55.85% # Type of FU issued
system.switch_cpus1.iq.FU_type_0::FloatMisc            0      0.00%     55.85% # Type of FU issued
system.switch_cpus1.iq.FU_type_0::FloatSqrt            0      0.00%     55.85% # Type of FU issued
system.switch_cpus1.iq.FU_type_0::SimdAdd            0      0.00%     55.85% # Type of FU issued
system.switch_cpus1.iq.FU_type_0::SimdAddAcc            0      0.00%     55.85% # Type of FU issued
system.switch_cpus1.iq.FU_type_0::SimdAlu        58000      0.01%     55.86% # Type of FU issued
system.switch_cpus1.iq.FU_type_0::SimdCmp            0      0.00%     55.86% # Type of FU issued
system.switch_cpus1.iq.FU_type_0::SimdCvt            0      0.00%     55.86% # Type of FU issued
system.switch_cpus1.iq.FU_type_0::SimdMisc            0      0.00%     55.86% # Type of FU issued
system.switch_cpus1.iq.FU_type_0::SimdMult            0      0.00%     55.86% # Type of FU issued
system.switch_cpus1.iq.FU_type_0::SimdMultAcc            0      0.00%     55.86% # Type of FU issued
system.switch_cpus1.iq.FU_type_0::SimdShift            0      0.00%     55.86% # Type of FU issued
system.switch_cpus1.iq.FU_type_0::SimdShiftAcc            0      0.00%     55.86% # Type of FU issued
system.switch_cpus1.iq.FU_type_0::SimdDiv            0      0.00%     55.86% # Type of FU issued
system.switch_cpus1.iq.FU_type_0::SimdSqrt            0      0.00%     55.86% # Type of FU issued
system.switch_cpus1.iq.FU_type_0::SimdFloatAdd     28711041      4.76%     60.62% # Type of FU issued
system.switch_cpus1.iq.FU_type_0::SimdFloatAlu            0      0.00%     60.62% # Type of FU issued
system.switch_cpus1.iq.FU_type_0::SimdFloatCmp     29649704      4.91%     65.53% # Type of FU issued
system.switch_cpus1.iq.FU_type_0::SimdFloatCvt      5713176      0.95%     66.48% # Type of FU issued
system.switch_cpus1.iq.FU_type_0::SimdFloatDiv            0      0.00%     66.48% # Type of FU issued
system.switch_cpus1.iq.FU_type_0::SimdFloatMisc            0      0.00%     66.48% # Type of FU issued
system.switch_cpus1.iq.FU_type_0::SimdFloatMult     15001002      2.49%     68.96% # Type of FU issued
system.switch_cpus1.iq.FU_type_0::SimdFloatMultAcc            0      0.00%     68.96% # Type of FU issued
system.switch_cpus1.iq.FU_type_0::SimdFloatSqrt            0      0.00%     68.96% # Type of FU issued
system.switch_cpus1.iq.FU_type_0::SimdReduceAdd            0      0.00%     68.96% # Type of FU issued
system.switch_cpus1.iq.FU_type_0::SimdReduceAlu            0      0.00%     68.96% # Type of FU issued
system.switch_cpus1.iq.FU_type_0::SimdReduceCmp            0      0.00%     68.96% # Type of FU issued
system.switch_cpus1.iq.FU_type_0::SimdFloatReduceAdd            0      0.00%     68.96% # Type of FU issued
system.switch_cpus1.iq.FU_type_0::SimdFloatReduceCmp            0      0.00%     68.96% # Type of FU issued
[...]
system.switch_cpus3.commit.numCommittedDist::0   1519599835     93.52%     93.52% # Number of insts commited each cycle
system.switch_cpus3.commit.numCommittedDist::1     36595367      2.25%     95.77% # Number of insts commited each cycle
system.switch_cpus3.commit.numCommittedDist::2      5102865      0.31%     96.08% # Number of insts commited each cycle
system.switch_cpus3.commit.numCommittedDist::3      9348461      0.58%     96.66% # Number of insts commited each cycle
system.switch_cpus3.commit.numCommittedDist::4     10021794      0.62%     97.28% # Number of insts commited each cycle
system.switch_cpus3.commit.numCommittedDist::5      3247333      0.20%     97.48% # Number of insts commited each cycle
system.switch_cpus3.commit.numCommittedDist::6      4144438      0.26%     97.73% # Number of insts commited each cycle
system.switch_cpus3.commit.numCommittedDist::7      4007593      0.25%     97.98% # Number of insts commited each cycle
system.switch_cpus3.commit.numCommittedDist::8     32862795      2.02%    100.00% # Number of insts commited each cycle
system.switch_cpus3.commit.numCommittedDist::overflows            0      0.00%    100.00% # Number of insts commited each cycle
system.switch_cpus3.commit.numCommittedDist::min_value            0                       # Number of insts commited each cycle
system.switch_cpus3.commit.numCommittedDist::max_value            8                       # Number of insts commited each cycle
system.switch_cpus3.commit.numCommittedDist::total   1624930481                       # Number of insts commited each cycle
system.switch_cpus3.commit.instsCommitted    250000000                       # Number of instructions committed
system.switch_cpus3.commit.opsCommitted     446992460                       # Number of ops (including micro ops) committed
system.switch_cpus3.commit.memRefs          107949231                       # Number of memory references committed
system.switch_cpus3.commit.loads             80236817                       # Number of loads committed
system.switch_cpus3.commit.amos                     0                       # Number of atomic instructions committed
system.switch_cpus3.commit.membars                100                       # Number of memory barriers committed
system.switch_cpus3.commit.branches          23624370                       # Number of branches committed
system.switch_cpus3.commit.vector                   0                       # Number of committed Vector instructions.
system.switch_cpus3.commit.floating         287099960                       # Number of committed floating point instructions.
system.switch_cpus3.commit.integer          242688568                       # Number of committed integer instructions.
system.switch_cpus3.commit.functionCalls       836070                       # Number of function calls committed.
system.switch_cpus3.commit.committedInstType_0::No_OpClass       267809      0.06%      0.06% # Class of committed instruction
system.switch_cpus3.commit.committedInstType_0::IntAlu    187368581     41.92%     41.98% # Class of committed instruction
system.switch_cpus3.commit.committedInstType_0::IntMult            0      0.00%     41.98% # Class of committed instruction
system.switch_cpus3.commit.committedInstType_0::IntDiv            0      0.00%     41.98% # Class of committed instruction
system.switch_cpus3.commit.committedInstType_0::FloatAdd     72687810     16.26%     58.24% # Class of committed instruction
system.switch_cpus3.commit.committedInstType_0::FloatCmp            0      0.00%     58.24% # Class of committed instruction
system.switch_cpus3.commit.committedInstType_0::FloatCvt            0      0.00%     58.24% # Class of committed instruction
system.switch_cpus3.commit.committedInstType_0::FloatMult            0      0.00%     58.24% # Class of committed instruction
system.switch_cpus3.commit.committedInstType_0::FloatMultAcc            0      0.00%     58.24% # Class of committed instruction
system.switch_cpus3.commit.committedInstType_0::FloatDiv            0      0.00%     58.24% # Class of committed instruction
system.switch_cpus3.commit.committedInstType_0::FloatMisc            0      0.00%     58.24% # Class of committed instruction
system.switch_cpus3.commit.committedInstType_0::FloatSqrt            0      0.00%     58.24% # Class of committed instruction
system.switch_cpus3.commit.committedInstType_0::SimdAdd            0      0.00%     58.24% # Class of committed instruction
system.switch_cpus3.commit.committedInstType_0::SimdAddAcc            0      0.00%     58.24% # Class of committed instruction
system.switch_cpus3.commit.committedInstType_0::SimdAlu        53360      0.01%     58.25% # Class of committed instruction
system.switch_cpus3.commit.committedInstType_0::SimdCmp            0      0.00%     58.25% # Class of committed instruction
system.switch_cpus3.commit.committedInstType_0::SimdCvt            0      0.00%     58.25% # Class of committed instruction
system.switch_cpus3.commit.committedInstType_0::SimdMisc            0      0.00%     58.25% # Class of committed instruction
system.switch_cpus3.commit.committedInstType_0::SimdMult            0      0.00%     58.25% # Class of committed instruction
system.switch_cpus3.commit.committedInstType_0::SimdMultAcc            0      0.00%     58.25% # Class of committed instruction
system.switch_cpus3.commit.committedInstType_0::SimdShift            0      0.00%     58.25% # Class of committed instruction
system.switch_cpus3.commit.committedInstType_0::SimdShiftAcc            0      0.00%     58.25% # Class of committed instruction
system.switch_cpus3.commit.committedInstType_0::SimdDiv            0      0.00%     58.25% # Class of committed instruction
system.switch_cpus3.commit.committedInstType_0::SimdSqrt            0      0.00%     58.25% # Class of committed instruction
system.switch_cpus3.commit.committedInstType_0::SimdFloatAdd     28564339      6.39%     64.64% # Class of committed instruction
system.switch_cpus3.commit.committedInstType_0::SimdFloatAlu            0      0.00%     64.64% # Class of committed instruction
system.switch_cpus3.commit.committedInstType_0::SimdFloatCmp     29489018      6.60%     71.24% # Class of committed instruction
system.switch_cpus3.commit.committedInstType_0::SimdFloatCvt      5675784      1.27%     72.51% # Class of committed instruction
system.switch_cpus3.commit.committedInstType_0::SimdFloatDiv            0      0.00%     72.51% # Class of committed instruction
system.switch_cpus3.commit.committedInstType_0::SimdFloatMisc            0      0.00%     72.51% # Class of committed instruction
system.switch_cpus3.commit.committedInstType_0::SimdFloatMult     14936528      3.34%     75.85% # Class of committed instruction
system.switch_cpus3.commit.committedInstType_0::SimdFloatMultAcc            0      0.00%     75.85% # Class of committed instruction
system.switch_cpus3.commit.committedInstType_0::SimdFloatSqrt            0      0.00%     75.85% # Class of committed instruction
system.switch_cpus3.commit.committedInstType_0::SimdReduceAdd            0      0.00%     75.85% # Class of committed instruction
system.switch_cpus3.commit.committedInstType_0::SimdReduceAlu            0      0.00%     75.85% # Class of committed instruction
system.switch_cpus3.commit.committedInstType_0::SimdReduceCmp            0      0.00%     75.85% # Class of committed instruction
system.switch_cpus3.commit.committedInstType_0::SimdFloatReduceAdd            0      0.00%     75.85% # Class of committed instruction
system.switch_cpus3.commit.committedInstType_0::SimdFloatReduceCmp            0      0.00%     75.85% # Class of committed instruction
system.switch_cpus3.commit.committedInstType_0::SimdAes            0      0.00%     75.85% # Class of committed instruction
system.switch_cpus3.commit.committedInstType_0::SimdAesMix            0      0.00%     75.85% # Class of committed instruction
system.switch_cpus3.commit.committedInstType_0::SimdSha1Hash            0      0.00%     75.85% # Class of committed instruction
system.switch_cpus3.commit.committedInstType_0::SimdSha1Hash2            0      0.00%     75.85% # Class of committed instruction
system.switch_cpus3.commit.committedInstType_0::SimdSha256Hash            0      0.00%     75.85% # Class of committed instruction
system.switch_cpus3.commit.committedInstType_0::SimdSha256Hash2            0      0.00%     75.85% # Class of committed instruction
system.switch_cpus3.commit.committedInstType_0::SimdShaSigma2            0      0.00%     75.85% # Class of committed instruction
system.switch_cpus3.commit.committedInstType_0::SimdShaSigma3            0      0.00%     75.85% # Class of committed instruction
system.switch_cpus3.commit.committedInstType_0::SimdPredAlu            0      0.00%     75.85% # Class of committed instruction
system.switch_cpus3.commit.committedInstType_0::MemRead     16946955      3.79%     79.64% # Class of committed instruction
system.switch_cpus3.commit.committedInstType_0::MemWrite      7929919      1.77%     81.42% # Class of committed instruction
system.switch_cpus3.commit.committedInstType_0::FloatMemRead     63289862     14.16%     95.57% # Class of committed instruction
system.switch_cpus3.commit.committedInstType_0::FloatMemWrite     19782495      4.43%    100.00% # Class of committed instruction
system.switch_cpus3.commit.committedInstType_0::IprAccess            0      0.00%    100.00% # Class of committed instruction
system.switch_cpus3.commit.committedInstType_0::InstPrefetch            0      0.00%    100.00% # Class of committed instruction
system.switch_cpus3.commit.committedInstType_0::total    446992460                       # Class of committed instruction
system.switch_cpus3.commit.commitEligibleSamples     32862795                       # number cycles where commit BW limit reached
system.switch_cpus3.decode.idleCycles        15187841                       # Number of cycles decode is idle
system.switch_cpus3.decode.blockedCycles   1544256376                       # Number of cycles decode is blocked
system.switch_cpus3.decode.runCycles         53095407                       # Number of cycles decode is running
system.switch_cpus3.decode.unblockCycles     29209987                       # Number of cycles decode is unblocking
system.switch_cpus3.decode.squashCycles       1688264                       # Number of cycles decode is squashing
system.switch_cpus3.decode.branchResolved     17699416                       # Number of times decode resolved a  branch
system.switch_cpus3.decode.branchMispred          390                       # Number of times decode detected a branch misprediction
system.switch_cpus3.decode.decodedInsts     625382211                       # Number of instructions handled by decode
system.switch_cpus3.decode.squashedInsts         2399                       # Number of squashed instructions handled by decode
system.switch_cpus3.dtb.rdAccesses          124902276                       # TLB accesses on read requests
system.switch_cpus3.dtb.wrAccesses           65095796                       # TLB accesses on write requests
system.switch_cpus3.dtb.rdMisses              2728183                       # TLB misses on read requests
system.switch_cpus3.dtb.wrMisses               329635                       # TLB misses on write requests
system.switch_cpus3.dtb.walker.power_state.pwrStateResidencyTicks::UNDEFINED 18766441929843                       # Cumulative time (in ticks) in various power states
system.switch_cpus3.fetch.icacheStallCycles       844628                       # Number of cycles fetch is stalled on an Icache miss
system.switch_cpus3.fetch.insts             359446095                       # Number of instructions fetch has processed
system.switch_cpus3.fetch.branches           36769784                       # Number of branches that fetch encountered
system.switch_cpus3.fetch.predictedBranches     21716309                       # Number of branches that fetch has predicted taken
system.switch_cpus3.fetch.cycles           1640902454                       # Number of cycles fetch has run and was not squashing or blocked
system.switch_cpus3.fetch.squashCycles        3377276                       # Number of cycles fetch has spent squashing
system.switch_cpus3.fetch.miscStallCycles          106                       # Number of cycles fetch has spent waiting on interrupts,or bad addresses, or out of MSHRs
system.switch_cpus3.fetch.pendingTrapStallCycles         2052                       # Number of stall cycles due to pending traps
system.switch_cpus3.fetch.cacheLines         46312725                       # Number of cache lines fetched
system.switch_cpus3.fetch.icacheSquashes          194                       # Number of outstanding Icache misses that were squashed
system.switch_cpus3.fetch.nisnDist::samples   1643437878                       # Number of instructions fetched each cycle (Total)
system.switch_cpus3.fetch.nisnDist::mean     0.418064                       # Number of instructions fetched each cycle (Total)
system.switch_cpus3.fetch.nisnDist::stdev     1.657386                       # Number of instructions fetched each cycle (Total)
system.switch_cpus3.fetch.nisnDist::underflows            0      0.00%      0.00% # Number of instructions fetched each cycle (Total)
system.switch_cpus3.fetch.nisnDist::0      1529154268     93.05%     93.05% # Number of instructions fetched each cycle (Total)
system.switch_cpus3.fetch.nisnDist::1         4874472      0.30%     93.34% # Number of instructions fetched each cycle (Total)
system.switch_cpus3.fetch.nisnDist::2        12839757      0.78%     94.12% # Number of instructions fetched each cycle (Total)
system.switch_cpus3.fetch.nisnDist::3         7590912      0.46%     94.59% # Number of instructions fetched each cycle (Total)
system.switch_cpus3.fetch.nisnDist::4         6665571      0.41%     94.99% # Number of instructions fetched each cycle (Total)
system.switch_cpus3.fetch.nisnDist::5        10188821      0.62%     95.61% # Number of instructions fetched each cycle (Total)
system.switch_cpus3.fetch.nisnDist::6         6370800      0.39%     96.00% # Number of instructions fetched each cycle (Total)
system.switch_cpus3.fetch.nisnDist::7         8122473      0.49%     96.49% # Number of instructions fetched each cycle (Total)
system.switch_cpus3.fetch.nisnDist::8        57630804      3.51%    100.00% # Number of instructions fetched each cycle (Total)
system.switch_cpus3.fetch.nisnDist::overflows            0      0.00%    100.00% # Number of instructions fetched each cycle (Total)
system.switch_cpus3.fetch.nisnDist::min_value            0                       # Number of instructions fetched each cycle (Total)
system.switch_cpus3.fetch.nisnDist::max_value            8                       # Number of instructions fetched each cycle (Total)
system.switch_cpus3.fetch.nisnDist::total   1643437878                       # Number of instructions fetched each cycle (Total)
system.switch_cpus3.fetch.branchRate         0.022373                       # Number of branch fetches per cycle
system.switch_cpus3.fetch.rate               0.218710                       # Number of inst fetches per cycle
system.switch_cpus3.itb.rdAccesses                  0                       # TLB accesses on read requests
system.switch_cpus3.itb.wrAccesses           46312913                       # TLB accesses on write requests
system.switch_cpus3.itb.rdMisses                    0                       # TLB misses on read requests
system.switch_cpus3.itb.wrMisses                  217                       # TLB misses on write requests
system.switch_cpus3.itb.walker.power_state.pwrStateResidencyTicks::UNDEFINED 18766441929843                       # Cumulative time (in ticks) in various power states
system.switch_cpus3.lsq0.forwLoads            1088874                       # Number of loads that had data forwarded from stores
system.switch_cpus3.lsq0.squashedLoads       35926246                       # Number of loads squashed
system.switch_cpus3.lsq0.ignoredResponses         1405                       # Number of memory responses ignored because the instruction is squashed
system.switch_cpus3.lsq0.memOrderViolation         7926                       # Number of memory ordering violations
system.switch_cpus3.lsq0.squashedStores      38937077                       # Number of stores squashed
system.switch_cpus3.lsq0.rescheduledLoads      8230893                       # Number of loads that were rescheduled
system.switch_cpus3.lsq0.blockedByCache          6724                       # Number of times an access to memory failed due to the cache being blocked
system.switch_cpus3.power_state.pwrStateResidencyTicks::OFF 547279688817                       # Cumulative time (in ticks) in various power states
system.switch_cpus3.rename.squashCycles       1688264                       # Number of cycles rename is squashing
system.switch_cpus3.rename.idleCycles        26641389                       # Number of cycles rename is idle
system.switch_cpus3.rename.blockCycles      898572922                       # Number of cycles rename is blocking
system.switch_cpus3.rename.serializeStallCycles            0                       # count of cycles rename stalledfor serializing inst
system.switch_cpus3.rename.runCycles         68987226                       # Number of cycles rename is running
system.switch_cpus3.rename.unblockCycles    647548074                       # Number of cycles rename is unblocking
system.switch_cpus3.rename.renamedInsts     611403005                       # Number of instructions processed by rename
system.switch_cpus3.rename.ROBFullEvents      8491629                       # Number of times rename has blocked due to ROB full
system.switch_cpus3.rename.IQFullEvents     150207854                       # Number of times rename has blocked due to IQ full
system.switch_cpus3.rename.LQFullEvents     302079633                       # Number of times rename has blocked due to LQ full
system.switch_cpus3.rename.SQFullEvents     307511469                       # Number of times rename has blocked due to SQ full
system.switch_cpus3.rename.renamedOperands    624304992                       # Number of destination operands rename has renamed
system.switch_cpus3.rename.lookups         1460490076                       # Number of register rename lookups that rename has made
system.switch_cpus3.rename.intLookups       606383480                       # Number of integer rename lookups
system.switch_cpus3.rename.fpLookups        384974380                       # Number of floating rename lookups
system.switch_cpus3.rename.committedMaps    472517900                       # Number of HB maps that are committed
system.switch_cpus3.rename.undoneMaps       151786853                       # Number of HB maps that are undone due to squashing
system.switch_cpus3.rename.serializing              0                       # count of serializing insts renamed
system.switch_cpus3.rename.tempSerializing            0                       # count of temporary serializing insts renamed
system.switch_cpus3.rename.skidInsts        162711720                       # count of insts added to the skid buffer
system.switch_cpus3.rob.reads              2159888392                       # The number of ROB reads
system.switch_cpus3.rob.writes             1182173945                       # The number of ROB writes
system.switch_cpus3.thread0.numInsts        250000000                       # Number of Instructions committed
system.switch_cpus3.thread0.numOps          446992460                       # Number of Ops committed
system.switch_cpus3.thread0.numMemRefs              0                       # Number of Memory References
system.voltage_domain.voltage                       1                       # Voltage in Volts

---------- End Simulation Statistics   ----------
