Command line:
./runscript_pride.sh mix19 RFM5.BR2.4C 4 2017 --rh_defense --rh_mitigation=RFM --rh_rfm_per_trefi=5 --rh_rfm_blast_radius=2 --rh_rfm_maxacts_per_trefi=79
Global frequency set at 1000000000000 ticks per second
RFM details - rfm_act_threshold: 15, blast_radius: 2, delay_per_rfm: 175000 ps. sample_rate: 0.062500
RH Defense config: RFM, Bus Delay: 0, rfms_per_trefi: 5, rfm_act_threshold: 15, blast_radius: 2,rfm_delay_per_act: 45000 ps.
DRAM config: RowsPerBank: 65536, BanksPerRank: 32, RanksPerChannel: 1
warn: Sockets disabled, not accepting gdb connections
warn: CoherentXBar system.cpu0.mmucache.mmubus has no snooping ports attached!
warn: CoherentXBar system.cpu1.mmucache.mmubus has no snooping ports attached!
warn: CoherentXBar system.cpu2.mmucache.mmubus has no snooping ports attached!
warn: CoherentXBar system.cpu3.mmucache.mmubus has no snooping ports attached!
warn: Checkpoints for file descriptors currently do not work.
warn: Checkpoints for file descriptors currently do not work.
warn: Checkpoints for file descriptors currently do not work.
warn: Checkpoints for file descriptors currently do not work.
gem5 Simulator System.  http://gem5.org
gem5 is copyrighted software; use the --copyright option for details.

gem5 version 20.1.0.5
gem5 compiled Jul 12 2024 12:42:38
gem5 started Jul 22 2024 17:29:37
gem5 executing on a07dda8b130c, pid 89538
command line: /home/user/PrIDE/performance/gem5/build/X86/gem5.opt --outdir=/home/user/PrIDE/performance/gem5/stats/pride_multiprogram_16GBmem_250Mn.SPEC2017.C4/RFM5.BR2.4C/mix19 /home/user/PrIDE/performance/gem5/configs/example/se_rq_spec_config_multicore.py --redirects /lib64=/home/utils/gcc-6.2.0/lib64 --benchmark=mix19 --benchmark_stdout=/home/user/PrIDE/performance/gem5/stats/pride_multiprogram_16GBmem_250Mn.SPEC2017.C4/RFM5.BR2.4C/mix19/mix19.out --benchmark_stderr=/home/user/PrIDE/performance/gem5/stats/pride_multiprogram_16GBmem_250Mn.SPEC2017.C4/RFM5.BR2.4C/mix19/mix19.err --spec-version=2017 --rh_defense --rh_mitigation=RFM --rh_rfm_per_trefi=5 --rh_rfm_blast_radius=2 --rh_rfm_maxacts_per_trefi=79 --num-cpus=4 --mem-size=16GB --mem-type=DDR5_2400_32x4 --mem-ranks=1 --checkpoint-dir=/home/user/PrIDE/performance/gem5/cpts/multiprogram_16GBmem_25Bn.SPEC2017.C4/mix19-1-ref-x86 --checkpoint-restore=25000000000 --at-instruction --cpu-type DerivO3CPU --caches --l2cache --l1d_size=32kB --l1i_size=32kB --l2_size=256kB --l1d_assoc=8 --l1i_assoc=8 --l2_assoc=16 --maxinsts=250000000 --prog-interval=300Hz

info: Standard input is not a terminal, disabling listeners.
Benchmark- 0   cactuBSSN
Selected benchmark
--> cactuBSSN
CMD: ['/opt/spec2017/benchspec/CPU/507.cactuBSSN_r/run/run_base_refrate_gem5_se-m64.0000/cactusBSSN_r_base.gem5_se-m64', '/opt/spec2017/benchspec/CPU/507.cactuBSSN_r/run/run_base_refrate_gem5_se-m64.0000/spec_ref.par']
CWD: /opt/spec2017/benchspec/CPU/507.cactuBSSN_r/run/run_base_refrate_gem5_se-m64.0000/
Process stdout file: /home/user/PrIDE/performance/gem5/stats/pride_multiprogram_16GBmem_250Mn.SPEC2017.C4/RFM5.BR2.4C/mix19/mix19.out_0
Process stderr file: /home/user/PrIDE/performance/gem5/stats/pride_multiprogram_16GBmem_250Mn.SPEC2017.C4/RFM5.BR2.4C/mix19/mix19.err_0
Benchmark- 1   mcf
Selected benchmark
--> mcf
CMD: ['/opt/spec2017/benchspec/CPU/505.mcf_r/run/run_base_refrate_gem5_se-m64.0000/mcf_r_base.gem5_se-m64', '/opt/spec2017/benchspec/CPU/505.mcf_r/run/run_base_refrate_gem5_se-m64.0000/inp.in']
CWD: /opt/spec2017/benchspec/CPU/505.mcf_r/run/run_base_refrate_gem5_se-m64.0000/
Process stdout file: /home/user/PrIDE/performance/gem5/stats/pride_multiprogram_16GBmem_250Mn.SPEC2017.C4/RFM5.BR2.4C/mix19/mix19.out_1
Process stderr file: /home/user/PrIDE/performance/gem5/stats/pride_multiprogram_16GBmem_250Mn.SPEC2017.C4/RFM5.BR2.4C/mix19/mix19.err_1
Benchmark- 2   x264
Selected benchmark
--> x264
CMD: ['/opt/spec2017/benchspec/CPU/525.x264_r/run/run_base_refrate_gem5_se-m64.0000/x264_r_base.gem5_se-m64', '--pass', '1', '--stats', '/opt/spec2017/benchspec/CPU/525.x264_r/run/run_base_refrate_gem5_se-m64.0000/x264_stats.log', '--bitrate', '1000', '--frames', '1000', '-o', '/opt/spec2017/benchspec/CPU/525.x264_r/run/run_base_refrate_gem5_se-m64.0000/BuckBunny_New.264', '/opt/spec2017/benchspec/CPU/525.x264_r/run/run_base_refrate_gem5_se-m64.0000/BuckBunny.yuv', '1280x720']
CWD: /opt/spec2017/benchspec/CPU/525.x264_r/run/run_base_refrate_gem5_se-m64.0000/
Process stdout file: /home/user/PrIDE/performance/gem5/stats/pride_multiprogram_16GBmem_250Mn.SPEC2017.C4/RFM5.BR2.4C/mix19/mix19.out_2
Process stderr file: /home/user/PrIDE/performance/gem5/stats/pride_multiprogram_16GBmem_250Mn.SPEC2017.C4/RFM5.BR2.4C/mix19/mix19.err_2
Benchmark- 3   exchange2
Selected benchmark
--> exchange2
CMD: ['/opt/spec2017/benchspec/CPU/548.exchange2_r/run/run_base_refrate_gem5_se-m64.0000/exchange2_r_base.gem5_se-m64', '6']
CWD: /opt/spec2017/benchspec/CPU/548.exchange2_r/run/run_base_refrate_gem5_se-m64.0000/
Process stdout file: /home/user/PrIDE/performance/gem5/stats/pride_multiprogram_16GBmem_250Mn.SPEC2017.C4/RFM5.BR2.4C/mix19/mix19.out_3
Process stderr file: /home/user/PrIDE/performance/gem5/stats/pride_multiprogram_16GBmem_250Mn.SPEC2017.C4/RFM5.BR2.4C/mix19/mix19.err_3
Workload-0: 
['/opt/spec2017/benchspec/CPU/507.cactuBSSN_r/run/run_base_refrate_gem5_se-m64.0000/cactusBSSN_r_base.gem5_se-m64', '/opt/spec2017/benchspec/CPU/507.cactuBSSN_r/run/run_base_refrate_gem5_se-m64.0000/spec_ref.par']
Workload-1: 
['/opt/spec2017/benchspec/CPU/505.mcf_r/run/run_base_refrate_gem5_se-m64.0000/mcf_r_base.gem5_se-m64', '/opt/spec2017/benchspec/CPU/505.mcf_r/run/run_base_refrate_gem5_se-m64.0000/inp.in']
Workload-2: 
['/opt/spec2017/benchspec/CPU/525.x264_r/run/run_base_refrate_gem5_se-m64.0000/x264_r_base.gem5_se-m64', '--pass', '1', '--stats', '/opt/spec2017/benchspec/CPU/525.x264_r/run/run_base_refrate_gem5_se-m64.0000/x264_stats.log', '--bitrate', '1000', '--frames', '1000', '-o', '/opt/spec2017/benchspec/CPU/525.x264_r/run/run_base_refrate_gem5_se-m64.0000/BuckBunny_New.264', '/opt/spec2017/benchspec/CPU/525.x264_r/run/run_base_refrate_gem5_se-m64.0000/BuckBunny.yuv', '1280x720']
Workload-3: 
['/opt/spec2017/benchspec/CPU/548.exchange2_r/run/run_base_refrate_gem5_se-m64.0000/exchange2_r_base.gem5_se-m64', '6']
defense_enable:  True  detector:  MG  mitigation:  RFM  threshold:  800
mg_entries:  1700
rfm_maxacts_per_trefi:  79 rfm_per_trefi:  5 rfm_blast_radius:  2
Switch at curTick count:10000
warn: membus.master is deprecated. `master` is now called `mem_side_ports`
warn: No dot file generated. Please install pydot to generate the dot file and pdf.
info: Entering event queue @ 14022978860457.  Starting simulation...
info: Entering event queue @ 14022978870457.  Starting simulation...
warn: PowerState: Already in the requested power state, request ignored
Switched CPUS @ tick 14022978870457
switching cpus
**** REAL SIMULATION ****
info: Entering event queue @ 14022978871113.  Starting simulation...
14026312193790: Event_285: system.switch_cpus3 progress event, total committed:39147678, progress insts committed: 39147678, IPC: 03.91085
14026312193790: Event_284: system.switch_cpus2 progress event, total committed:24668437, progress insts committed: 24668437, IPC: 02.46438
14026312193790: Event_283: system.switch_cpus1 progress event, total committed:11552206, progress insts committed: 11552206, IPC: 01.15407
14026312193790: Event_282: system.switch_cpus0 progress event, total committed:7372651, progress insts committed: 7372651, IPC: 0.736528
14029645527123: Event_282: system.switch_cpus0 progress event, total committed:14977545, progress insts committed: 7604894, IPC: 0.759729
14029645527123: Event_283: system.switch_cpus1 progress event, total committed:24743999, progress insts committed: 13191793, IPC: 01.31786
14029645527123: Event_284: system.switch_cpus2 progress event, total committed:49584007, progress insts committed: 24915570, IPC: 02.48907
14029645527123: Event_285: system.switch_cpus3 progress event, total committed:80368969, progress insts committed: 41221291, IPC: 04.11801
14032978860456: Event_285: system.switch_cpus3 progress event, total committed:116253870, progress insts committed: 35884901, IPC: 003.5849
14032978860456: Event_284: system.switch_cpus2 progress event, total committed:75781773, progress insts committed: 26197766, IPC: 02.61716
14032978860456: Event_283: system.switch_cpus1 progress event, total committed:37371902, progress insts committed: 12627903, IPC: 01.26153
14032978860456: Event_282: system.switch_cpus0 progress event, total committed:22590116, progress insts committed: 7612571, IPC: 0.760496
14036312193789: Event_282: system.switch_cpus0 progress event, total committed:30207071, progress insts committed: 7616955, IPC: 0.760934
14036312193789: Event_283: system.switch_cpus1 progress event, total committed:49983180, progress insts committed: 12611278, IPC: 01.25987
14036312193789: Event_284: system.switch_cpus2 progress event, total committed:101094524, progress insts committed: 25312751, IPC: 02.52874
14036312193789: Event_285: system.switch_cpus3 progress event, total committed:150606075, progress insts committed: 34352205, IPC: 03.43179
14039645527122: Event_285: system.switch_cpus3 progress event, total committed:183934491, progress insts committed: 33328416, IPC: 03.32951
14039645527122: Event_284: system.switch_cpus2 progress event, total committed:124097918, progress insts committed: 23003394, IPC: 02.29804
14039645527122: Event_283: system.switch_cpus1 progress event, total committed:63070369, progress insts committed: 13087189, IPC: 01.30741
14039645527122: Event_282: system.switch_cpus0 progress event, total committed:37753063, progress insts committed: 7545992, IPC: 0.753845
14042978860455: Event_282: system.switch_cpus0 progress event, total committed:45367411, progress insts committed: 7614348, IPC: 0.760673
14042978860455: Event_283: system.switch_cpus1 progress event, total committed:75700346, progress insts committed: 12629977, IPC: 01.26173
14042978860455: Event_284: system.switch_cpus2 progress event, total committed:149793883, progress insts committed: 25695965, IPC: 02.56703
14042978860455: Event_285: system.switch_cpus3 progress event, total committed:215835955, progress insts committed: 31901464, IPC: 03.18696
14046312193788: Event_285: system.switch_cpus3 progress event, total committed:250417610, progress insts committed: 34581655, IPC: 03.45471
14046312193788: Event_284: system.switch_cpus2 progress event, total committed:174983114, progress insts committed: 25189231, IPC: 002.5164
14046312193788: Event_283: system.switch_cpus1 progress event, total committed:88401454, progress insts committed: 12701108, IPC: 01.26884
14046312193788: Event_282: system.switch_cpus0 progress event, total committed:52973499, progress insts committed: 7606088, IPC: 0.759848
14049645527121: Event_282: system.switch_cpus0 progress event, total committed:60567144, progress insts committed: 7593645, IPC: 0.758605
14049645527121: Event_283: system.switch_cpus1 progress event, total committed:101565642, progress insts committed: 13164188, IPC: 001.3151
14049645527121: Event_284: system.switch_cpus2 progress event, total committed:199585209, progress insts committed: 24602095, IPC: 02.45775
14049645527121: Event_285: system.switch_cpus3 progress event, total committed:285572163, progress insts committed: 35154553, IPC: 03.51194
14052978860454: Event_285: system.switch_cpus3 progress event, total committed:321864349, progress insts committed: 36292186, IPC: 03.62559
14052978860454: Event_284: system.switch_cpus2 progress event, total committed:221225232, progress insts committed: 21640023, IPC: 02.16184
14052978860454: Event_283: system.switch_cpus1 progress event, total committed:114082997, progress insts committed: 12517355, IPC: 01.25048
14052978860454: Event_282: system.switch_cpus0 progress event, total committed:68183791, progress insts committed: 7616647, IPC: 0.760903
14056312193787: Event_282: system.switch_cpus0 progress event, total committed:75746075, progress insts committed: 7562284, IPC: 0.755472
14056312193787: Event_283: system.switch_cpus1 progress event, total committed:126860516, progress insts committed: 12777519, IPC: 01.27647
14056312193787: Event_284: system.switch_cpus2 progress event, total committed:242487106, progress insts committed: 21261874, IPC: 02.12406
14056312193787: Event_285: system.switch_cpus3 progress event, total committed:357069150, progress insts committed: 35204801, IPC: 03.51696
14059645527120: Event_285: system.switch_cpus3 progress event, total committed:396246751, progress insts committed: 39177601, IPC: 03.91384
14059645527120: Event_284: system.switch_cpus2 progress event, total committed:263096050, progress insts committed: 20608944, IPC: 02.05883
14059645527120: Event_283: system.switch_cpus1 progress event, total committed:139838022, progress insts committed: 12977506, IPC: 01.29645
14059645527120: Event_282: system.switch_cpus0 progress event, total committed:83269778, progress insts committed: 7523703, IPC: 0.751618
14062978860453: Event_282: system.switch_cpus0 progress event, total committed:90846451, progress insts committed: 7576673, IPC: 00.75691
14062978860453: Event_283: system.switch_cpus1 progress event, total committed:152351506, progress insts committed: 12513484, IPC: 001.2501
14062978860453: Event_284: system.switch_cpus2 progress event, total committed:284115751, progress insts committed: 21019701, IPC: 02.09987
14062978860453: Event_285: system.switch_cpus3 progress event, total committed:434084084, progress insts committed: 37837333, IPC: 03.77995
14066312193786: Event_285: system.switch_cpus3 progress event, total committed:474288421, progress insts committed: 40204337, IPC: 04.01641
14066312193786: Event_284: system.switch_cpus2 progress event, total committed:306629437, progress insts committed: 22513686, IPC: 02.24912
14066312193786: Event_283: system.switch_cpus1 progress event, total committed:165235318, progress insts committed: 12883812, IPC: 01.28709
14066312193786: Event_282: system.switch_cpus0 progress event, total committed:98461354, progress insts committed: 7614903, IPC: 0.760729
Exiting @ tick 14067256373289 because a thread reached the max instruction count
