
---------- Begin Simulation Statistics ----------
final_tick                               15691442399118                       # Number of ticks from beginning of simulation (restored from checkpoints and never reset)
host_inst_rate                                 147050                       # Simulator instruction rate (inst/s)
host_mem_usage                               17332144                       # Number of bytes of host memory used
host_op_rate                                   272955                       # Simulator op (including micro ops) rate (op/s)
host_seconds                                  4885.34                       # Real time elapsed on the host
host_tick_rate                                8225680                       # Simulator tick rate (ticks/s)
sim_freq                                 1000000000000                       # Frequency of simulated ticks
sim_insts                                   718391524                       # Number of instructions simulated
sim_ops                                    1333480511                       # Number of ops (including micro ops) simulated
sim_seconds                                  0.040185                       # Number of seconds simulated
sim_ticks                                 40185280494                       # Number of ticks simulated
system.cpu0.Branches                                3                       # Number of branches fetched
system.cpu0.committedInsts                         13                       # Number of instructions committed
system.cpu0.committedOps                           23                       # Number of ops (including micro ops) committed
system.cpu0.idle_fraction                           0                       # Percentage of idle cycles
system.cpu0.l2bus.snoop_filter.hit_multi_requests           79                       # Number of requests hitting in the snoop filter with multiple (>1) holders of the requested data.
system.cpu0.l2bus.snoop_filter.hit_multi_snoops            0                       # Number of snoops hitting in the snoop filter with multiple (>1) holders of the requested data.
system.cpu0.l2bus.snoop_filter.hit_single_requests       484862                       # Number of requests hitting in the snoop filter with a single holder of the requested data.
system.cpu0.l2bus.snoop_filter.hit_single_snoops          501                       # Number of snoops hitting in the snoop filter with a single holder of the requested data.
system.cpu0.l2bus.snoop_filter.tot_requests       970578                       # Total number of requests made to the snoop filter.
system.cpu0.l2bus.snoop_filter.tot_snoops          501                       # Total number of snoops made to the snoop filter.
system.cpu0.mmucache.mmubus.snoop_filter.hit_multi_requests            0                       # Number of requests hitting in the snoop filter with multiple (>1) holders of the requested data.
system.cpu0.mmucache.mmubus.snoop_filter.hit_multi_snoops            0                       # Number of snoops hitting in the snoop filter with multiple (>1) holders of the requested data.
system.cpu0.mmucache.mmubus.snoop_filter.hit_single_requests            0                       # Number of requests hitting in the snoop filter with a single holder of the requested data.
system.cpu0.mmucache.mmubus.snoop_filter.hit_single_snoops            0                       # Number of snoops hitting in the snoop filter with a single holder of the requested data.
system.cpu0.mmucache.mmubus.snoop_filter.tot_requests            0                       # Total number of requests made to the snoop filter.
system.cpu0.mmucache.mmubus.snoop_filter.tot_snoops            0                       # Total number of snoops made to the snoop filter.
system.cpu0.not_idle_fraction                       1                       # Percentage of non-idle cycles
system.cpu0.numCycles                              30                       # number of cpu cycles simulated
system.cpu0.numWorkItemsCompleted                   0                       # number of work items this cpu completed
system.cpu0.numWorkItemsStarted                     0                       # number of work items this cpu started
system.cpu0.num_busy_cycles                        30                       # Number of busy cycles
system.cpu0.num_cc_register_reads                  15                       # number of times the CC registers were read
system.cpu0.num_cc_register_writes                 10                       # number of times the CC registers were written
system.cpu0.num_conditional_control_insts            3                       # number of instructions that are conditional controls
system.cpu0.num_fp_alu_accesses                     0                       # Number of float alu accesses
system.cpu0.num_fp_insts                            0                       # number of float instructions
system.cpu0.num_fp_register_reads                   0                       # number of times the floating registers were read
system.cpu0.num_fp_register_writes                  0                       # number of times the floating registers were written
system.cpu0.num_func_calls                          0                       # number of times a function call or return occured
system.cpu0.num_idle_cycles                         0                       # Number of idle cycles
system.cpu0.num_int_alu_accesses                   23                       # Number of integer alu accesses
system.cpu0.num_int_insts                          23                       # number of integer instructions
system.cpu0.num_int_register_reads                 39                       # number of times the integer registers were read
system.cpu0.num_int_register_writes                20                       # number of times the integer registers were written
system.cpu0.num_load_insts                          4                       # Number of load instructions
system.cpu0.num_mem_refs                            4                       # number of memory refs
system.cpu0.num_store_insts                         0                       # Number of store instructions
system.cpu0.num_vec_alu_accesses                    0                       # Number of vector alu accesses
system.cpu0.num_vec_insts                           0                       # number of vector instructions
system.cpu0.num_vec_register_reads                  0                       # number of times the vector registers were read
system.cpu0.num_vec_register_writes                 0                       # number of times the vector registers were written
system.cpu0.op_class::No_OpClass                    0      0.00%      0.00% # Class of executed instruction
system.cpu0.op_class::IntAlu                       19     82.61%     82.61% # Class of executed instruction
system.cpu0.op_class::IntMult                       0      0.00%     82.61% # Class of executed instruction
system.cpu0.op_class::IntDiv                        0      0.00%     82.61% # Class of executed instruction
system.cpu0.op_class::FloatAdd                      0      0.00%     82.61% # Class of executed instruction
system.cpu0.op_class::FloatCmp                      0      0.00%     82.61% # Class of executed instruction
system.cpu0.op_class::FloatCvt                      0      0.00%     82.61% # Class of executed instruction
system.cpu0.op_class::FloatMult                     0      0.00%     82.61% # Class of executed instruction
system.cpu0.op_class::FloatMultAcc                  0      0.00%     82.61% # Class of executed instruction
system.cpu0.op_class::FloatDiv                      0      0.00%     82.61% # Class of executed instruction
system.cpu0.op_class::FloatMisc                     0      0.00%     82.61% # Class of executed instruction
system.cpu0.op_class::FloatSqrt                     0      0.00%     82.61% # Class of executed instruction
system.cpu0.op_class::SimdAdd                       0      0.00%     82.61% # Class of executed instruction
system.cpu0.op_class::SimdAddAcc                    0      0.00%     82.61% # Class of executed instruction
system.cpu0.op_class::SimdAlu                       0      0.00%     82.61% # Class of executed instruction
system.cpu0.op_class::SimdCmp                       0      0.00%     82.61% # Class of executed instruction
system.cpu0.op_class::SimdCvt                       0      0.00%     82.61% # Class of executed instruction
system.cpu0.op_class::SimdMisc                      0      0.00%     82.61% # Class of executed instruction
system.cpu0.op_class::SimdMult                      0      0.00%     82.61% # Class of executed instruction
system.cpu0.op_class::SimdMultAcc                   0      0.00%     82.61% # Class of executed instruction
system.cpu0.op_class::SimdShift                     0      0.00%     82.61% # Class of executed instruction
system.cpu0.op_class::SimdShiftAcc                  0      0.00%     82.61% # Class of executed instruction
system.cpu0.op_class::SimdDiv                       0      0.00%     82.61% # Class of executed instruction
system.cpu0.op_class::SimdSqrt                      0      0.00%     82.61% # Class of executed instruction
system.cpu0.op_class::SimdFloatAdd                  0      0.00%     82.61% # Class of executed instruction
system.cpu0.op_class::SimdFloatAlu                  0      0.00%     82.61% # Class of executed instruction
system.cpu0.op_class::SimdFloatCmp                  0      0.00%     82.61% # Class of executed instruction
system.cpu0.op_class::SimdFloatCvt                  0      0.00%     82.61% # Class of executed instruction
system.cpu0.op_class::SimdFloatDiv                  0      0.00%     82.61% # Class of executed instruction
system.cpu0.op_class::SimdFloatMisc                 0      0.00%     82.61% # Class of executed instruction
system.cpu0.op_class::SimdFloatMult                 0      0.00%     82.61% # Class of executed instruction
system.cpu0.op_class::SimdFloatMultAcc              0      0.00%     82.61% # Class of executed instruction
system.cpu0.op_class::SimdFloatSqrt                 0      0.00%     82.61% # Class of executed instruction
system.cpu0.op_class::SimdReduceAdd                 0      0.00%     82.61% # Class of executed instruction
system.cpu0.op_class::SimdReduceAlu                 0      0.00%     82.61% # Class of executed instruction
system.cpu0.op_class::SimdReduceCmp                 0      0.00%     82.61% # Class of executed instruction
system.cpu0.op_class::SimdFloatReduceAdd            0      0.00%     82.61% # Class of executed instruction
system.cpu0.op_class::SimdFloatReduceCmp            0      0.00%     82.61% # Class of executed instruction
system.cpu0.op_class::SimdAes                       0      0.00%     82.61% # Class of executed instruction
system.cpu0.op_class::SimdAesMix                    0      0.00%     82.61% # Class of executed instruction
system.cpu0.op_class::SimdSha1Hash                  0      0.00%     82.61% # Class of executed instruction
system.cpu0.op_class::SimdSha1Hash2                 0      0.00%     82.61% # Class of executed instruction
system.cpu0.op_class::SimdSha256Hash                0      0.00%     82.61% # Class of executed instruction
system.cpu0.op_class::SimdSha256Hash2               0      0.00%     82.61% # Class of executed instruction
system.cpu0.op_class::SimdShaSigma2                 0      0.00%     82.61% # Class of executed instruction
system.cpu0.op_class::SimdShaSigma3                 0      0.00%     82.61% # Class of executed instruction
system.cpu0.op_class::SimdPredAlu                   0      0.00%     82.61% # Class of executed instruction
system.cpu0.op_class::MemRead                       4     17.39%    100.00% # Class of executed instruction
system.cpu0.op_class::MemWrite                      0      0.00%    100.00% # Class of executed instruction
system.cpu0.op_class::FloatMemRead                  0      0.00%    100.00% # Class of executed instruction
system.cpu0.op_class::FloatMemWrite                 0      0.00%    100.00% # Class of executed instruction
system.cpu0.op_class::IprAccess                     0      0.00%    100.00% # Class of executed instruction
system.cpu0.op_class::InstPrefetch                  0      0.00%    100.00% # Class of executed instruction
system.cpu0.op_class::total                        23                       # Class of executed instruction
system.cpu0.workload.numSyscalls                    0                       # Number of system calls
system.cpu1.Branches                                3                       # Number of branches fetched
system.cpu1.committedInsts                         14                       # Number of instructions committed
system.cpu1.committedOps                           26                       # Number of ops (including micro ops) committed
system.cpu1.idle_fraction                           0                       # Percentage of idle cycles
system.cpu1.l2bus.snoop_filter.hit_multi_requests            3                       # Number of requests hitting in the snoop filter with multiple (>1) holders of the requested data.
system.cpu1.l2bus.snoop_filter.hit_multi_snoops            0                       # Number of snoops hitting in the snoop filter with multiple (>1) holders of the requested data.
system.cpu1.l2bus.snoop_filter.hit_single_requests         6240                       # Number of requests hitting in the snoop filter with a single holder of the requested data.
system.cpu1.l2bus.snoop_filter.hit_single_snoops            0                       # Number of snoops hitting in the snoop filter with a single holder of the requested data.
system.cpu1.l2bus.snoop_filter.tot_requests        13293                       # Total number of requests made to the snoop filter.
system.cpu1.l2bus.snoop_filter.tot_snoops            0                       # Total number of snoops made to the snoop filter.
system.cpu1.mmucache.mmubus.snoop_filter.hit_multi_requests            0                       # Number of requests hitting in the snoop filter with multiple (>1) holders of the requested data.
system.cpu1.mmucache.mmubus.snoop_filter.hit_multi_snoops            0                       # Number of snoops hitting in the snoop filter with multiple (>1) holders of the requested data.
system.cpu1.mmucache.mmubus.snoop_filter.hit_single_requests            0                       # Number of requests hitting in the snoop filter with a single holder of the requested data.
system.cpu1.mmucache.mmubus.snoop_filter.hit_single_snoops            0                       # Number of snoops hitting in the snoop filter with a single holder of the requested data.
system.cpu1.mmucache.mmubus.snoop_filter.tot_requests            0                       # Total number of requests made to the snoop filter.
system.cpu1.mmucache.mmubus.snoop_filter.tot_snoops            0                       # Total number of snoops made to the snoop filter.
system.cpu1.not_idle_fraction                       1                       # Percentage of non-idle cycles
system.cpu1.numCycles                              30                       # number of cpu cycles simulated
system.cpu1.numWorkItemsCompleted                   0                       # number of work items this cpu completed
system.cpu1.numWorkItemsStarted                     0                       # number of work items this cpu started
system.cpu1.num_busy_cycles                        30                       # Number of busy cycles
system.cpu1.num_cc_register_reads                  16                       # number of times the CC registers were read
system.cpu1.num_cc_register_writes                 10                       # number of times the CC registers were written
system.cpu1.num_conditional_control_insts            3                       # number of instructions that are conditional controls
system.cpu1.num_fp_alu_accesses                     0                       # Number of float alu accesses
system.cpu1.num_fp_insts                            0                       # number of float instructions
system.cpu1.num_fp_register_reads                   0                       # number of times the floating registers were read
system.cpu1.num_fp_register_writes                  0                       # number of times the floating registers were written
system.cpu1.num_func_calls                          0                       # number of times a function call or return occured
system.cpu1.num_idle_cycles                         0                       # Number of idle cycles
system.cpu1.num_int_alu_accesses                   26                       # Number of integer alu accesses
system.cpu1.num_int_insts                          26                       # number of integer instructions
system.cpu1.num_int_register_reads                 48                       # number of times the integer registers were read
system.cpu1.num_int_register_writes                22                       # number of times the integer registers were written
system.cpu1.num_load_insts                          6                       # Number of load instructions
system.cpu1.num_mem_refs                            7                       # number of memory refs
system.cpu1.num_store_insts                         1                       # Number of store instructions
system.cpu1.num_vec_alu_accesses                    0                       # Number of vector alu accesses
system.cpu1.num_vec_insts                           0                       # number of vector instructions
system.cpu1.num_vec_register_reads                  0                       # number of times the vector registers were read
system.cpu1.num_vec_register_writes                 0                       # number of times the vector registers were written
system.cpu1.op_class::No_OpClass                    0      0.00%      0.00% # Class of executed instruction
system.cpu1.op_class::IntAlu                       19     73.08%     73.08% # Class of executed instruction
system.cpu1.op_class::IntMult                       0      0.00%     73.08% # Class of executed instruction
system.cpu1.op_class::IntDiv                        0      0.00%     73.08% # Class of executed instruction
system.cpu1.op_class::FloatAdd                      0      0.00%     73.08% # Class of executed instruction
system.cpu1.op_class::FloatCmp                      0      0.00%     73.08% # Class of executed instruction
system.cpu1.op_class::FloatCvt                      0      0.00%     73.08% # Class of executed instruction
system.cpu1.op_class::FloatMult                     0      0.00%     73.08% # Class of executed instruction
system.cpu1.op_class::FloatMultAcc                  0      0.00%     73.08% # Class of executed instruction
system.cpu1.op_class::FloatDiv                      0      0.00%     73.08% # Class of executed instruction
system.cpu1.op_class::FloatMisc                     0      0.00%     73.08% # Class of executed instruction
system.cpu1.op_class::FloatSqrt                     0      0.00%     73.08% # Class of executed instruction
system.cpu1.op_class::SimdAdd                       0      0.00%     73.08% # Class of executed instruction
system.cpu1.op_class::SimdAddAcc                    0      0.00%     73.08% # Class of executed instruction
system.cpu1.op_class::SimdAlu                       0      0.00%     73.08% # Class of executed instruction
system.cpu1.op_class::SimdCmp                       0      0.00%     73.08% # Class of executed instruction
system.cpu1.op_class::SimdCvt                       0      0.00%     73.08% # Class of executed instruction
system.cpu1.op_class::SimdMisc                      0      0.00%     73.08% # Class of executed instruction
system.cpu1.op_class::SimdMult                      0      0.00%     73.08% # Class of executed instruction
system.cpu1.op_class::SimdMultAcc                   0      0.00%     73.08% # Class of executed instruction
system.cpu1.op_class::SimdShift                     0      0.00%     73.08% # Class of executed instruction
system.cpu1.op_class::SimdShiftAcc                  0      0.00%     73.08% # Class of executed instruction
system.cpu1.op_class::SimdDiv                       0      0.00%     73.08% # Class of executed instruction
system.cpu1.op_class::SimdSqrt                      0      0.00%     73.08% # Class of executed instruction
system.cpu1.op_class::SimdFloatAdd                  0      0.00%     73.08% # Class of executed instruction
system.cpu1.op_class::SimdFloatAlu                  0      0.00%     73.08% # Class of executed instruction
system.cpu1.op_class::SimdFloatCmp                  0      0.00%     73.08% # Class of executed instruction
system.cpu1.op_class::SimdFloatCvt                  0      0.00%     73.08% # Class of executed instruction
system.cpu1.op_class::SimdFloatDiv                  0      0.00%     73.08% # Class of executed instruction
system.cpu1.op_class::SimdFloatMisc                 0      0.00%     73.08% # Class of executed instruction
system.cpu1.op_class::SimdFloatMult                 0      0.00%     73.08% # Class of executed instruction
system.cpu1.op_class::SimdFloatMultAcc              0      0.00%     73.08% # Class of executed instruction
system.cpu1.op_class::SimdFloatSqrt                 0      0.00%     73.08% # Class of executed instruction
system.cpu1.op_class::SimdReduceAdd                 0      0.00%     73.08% # Class of executed instruction
system.cpu1.op_class::SimdReduceAlu                 0      0.00%     73.08% # Class of executed instruction
system.cpu1.op_class::SimdReduceCmp                 0      0.00%     73.08% # Class of executed instruction
system.cpu1.op_class::SimdFloatReduceAdd            0      0.00%     73.08% # Class of executed instruction
system.cpu1.op_class::SimdFloatReduceCmp            0      0.00%     73.08% # Class of executed instruction
system.cpu1.op_class::SimdAes                       0      0.00%     73.08% # Class of executed instruction
system.cpu1.op_class::SimdAesMix                    0      0.00%     73.08% # Class of executed instruction
system.cpu1.op_class::SimdSha1Hash                  0      0.00%     73.08% # Class of executed instruction
system.cpu1.op_class::SimdSha1Hash2                 0      0.00%     73.08% # Class of executed instruction
system.cpu1.op_class::SimdSha256Hash                0      0.00%     73.08% # Class of executed instruction
system.cpu1.op_class::SimdSha256Hash2               0      0.00%     73.08% # Class of executed instruction
system.cpu1.op_class::SimdShaSigma2                 0      0.00%     73.08% # Class of executed instruction
system.cpu1.op_class::SimdShaSigma3                 0      0.00%     73.08% # Class of executed instruction
system.cpu1.op_class::SimdPredAlu                   0      0.00%     73.08% # Class of executed instruction
system.cpu1.op_class::MemRead                       6     23.08%     96.15% # Class of executed instruction
system.cpu1.op_class::MemWrite                      1      3.85%    100.00% # Class of executed instruction
system.cpu1.op_class::FloatMemRead                  0      0.00%    100.00% # Class of executed instruction
system.cpu1.op_class::FloatMemWrite                 0      0.00%    100.00% # Class of executed instruction
system.cpu1.op_class::IprAccess                     0      0.00%    100.00% # Class of executed instruction
system.cpu1.op_class::InstPrefetch                  0      0.00%    100.00% # Class of executed instruction
system.cpu1.op_class::total                        26                       # Class of executed instruction
system.cpu1.workload.numSyscalls                    0                       # Number of system calls
system.cpu2.Branches                                3                       # Number of branches fetched
system.cpu2.committedInsts                         15                       # Number of instructions committed
system.cpu2.committedOps                           29                       # Number of ops (including micro ops) committed
system.cpu2.idle_fraction                           0                       # Percentage of idle cycles
system.cpu2.l2bus.snoop_filter.hit_multi_requests            2                       # Number of requests hitting in the snoop filter with multiple (>1) holders of the requested data.
system.cpu2.l2bus.snoop_filter.hit_multi_snoops            0                       # Number of snoops hitting in the snoop filter with multiple (>1) holders of the requested data.
system.cpu2.l2bus.snoop_filter.hit_single_requests        40830                       # Number of requests hitting in the snoop filter with a single holder of the requested data.
system.cpu2.l2bus.snoop_filter.hit_single_snoops          550                       # Number of snoops hitting in the snoop filter with a single holder of the requested data.
system.cpu2.l2bus.snoop_filter.tot_requests        82447                       # Total number of requests made to the snoop filter.
system.cpu2.l2bus.snoop_filter.tot_snoops          550                       # Total number of snoops made to the snoop filter.
system.cpu2.mmucache.mmubus.snoop_filter.hit_multi_requests            0                       # Number of requests hitting in the snoop filter with multiple (>1) holders of the requested data.
system.cpu2.mmucache.mmubus.snoop_filter.hit_multi_snoops            0                       # Number of snoops hitting in the snoop filter with multiple (>1) holders of the requested data.
system.cpu2.mmucache.mmubus.snoop_filter.hit_single_requests            0                       # Number of requests hitting in the snoop filter with a single holder of the requested data.
system.cpu2.mmucache.mmubus.snoop_filter.hit_single_snoops            0                       # Number of snoops hitting in the snoop filter with a single holder of the requested data.
system.cpu2.mmucache.mmubus.snoop_filter.tot_requests            0                       # Total number of requests made to the snoop filter.
system.cpu2.mmucache.mmubus.snoop_filter.tot_snoops            0                       # Total number of snoops made to the snoop filter.
system.cpu2.not_idle_fraction                       1                       # Percentage of non-idle cycles
system.cpu2.numCycles                              32                       # number of cpu cycles simulated
system.cpu2.numWorkItemsCompleted                   0                       # number of work items this cpu completed
system.cpu2.numWorkItemsStarted                     0                       # number of work items this cpu started
system.cpu2.num_busy_cycles                        32                       # Number of busy cycles
system.cpu2.num_cc_register_reads                  13                       # number of times the CC registers were read
system.cpu2.num_cc_register_writes                 19                       # number of times the CC registers were written
system.cpu2.num_conditional_control_insts            2                       # number of instructions that are conditional controls
system.cpu2.num_fp_alu_accesses                     0                       # Number of float alu accesses
system.cpu2.num_fp_insts                            0                       # number of float instructions
system.cpu2.num_fp_register_reads                   0                       # number of times the floating registers were read
system.cpu2.num_fp_register_writes                  0                       # number of times the floating registers were written
system.cpu2.num_func_calls                          0                       # number of times a function call or return occured
system.cpu2.num_idle_cycles                         0                       # Number of idle cycles
system.cpu2.num_int_alu_accesses                   29                       # Number of integer alu accesses
system.cpu2.num_int_insts                          29                       # number of integer instructions
system.cpu2.num_int_register_reads                 54                       # number of times the integer registers were read
system.cpu2.num_int_register_writes                26                       # number of times the integer registers were written
system.cpu2.num_load_insts                          3                       # Number of load instructions
system.cpu2.num_mem_refs                            4                       # number of memory refs
system.cpu2.num_store_insts                         1                       # Number of store instructions
system.cpu2.num_vec_alu_accesses                    0                       # Number of vector alu accesses
system.cpu2.num_vec_insts                           0                       # number of vector instructions
system.cpu2.num_vec_register_reads                  0                       # number of times the vector registers were read
system.cpu2.num_vec_register_writes                 0                       # number of times the vector registers were written
system.cpu2.op_class::No_OpClass                    0      0.00%      0.00% # Class of executed instruction
system.cpu2.op_class::IntAlu                       24     82.76%     82.76% # Class of executed instruction
system.cpu2.op_class::IntMult                       1      3.45%     86.21% # Class of executed instruction
system.cpu2.op_class::IntDiv                        0      0.00%     86.21% # Class of executed instruction
system.cpu2.op_class::FloatAdd                      0      0.00%     86.21% # Class of executed instruction
system.cpu2.op_class::FloatCmp                      0      0.00%     86.21% # Class of executed instruction
system.cpu2.op_class::FloatCvt                      0      0.00%     86.21% # Class of executed instruction
system.cpu2.op_class::FloatMult                     0      0.00%     86.21% # Class of executed instruction
system.cpu2.op_class::FloatMultAcc                  0      0.00%     86.21% # Class of executed instruction
system.cpu2.op_class::FloatDiv                      0      0.00%     86.21% # Class of executed instruction
system.cpu2.op_class::FloatMisc                     0      0.00%     86.21% # Class of executed instruction
system.cpu2.op_class::FloatSqrt                     0      0.00%     86.21% # Class of executed instruction
system.cpu2.op_class::SimdAdd                       0      0.00%     86.21% # Class of executed instruction
system.cpu2.op_class::SimdAddAcc                    0      0.00%     86.21% # Class of executed instruction
system.cpu2.op_class::SimdAlu                       0      0.00%     86.21% # Class of executed instruction
system.cpu2.op_class::SimdCmp                       0      0.00%     86.21% # Class of executed instruction
system.cpu2.op_class::SimdCvt                       0      0.00%     86.21% # Class of executed instruction
system.cpu2.op_class::SimdMisc                      0      0.00%     86.21% # Class of executed instruction
system.cpu2.op_class::SimdMult                      0      0.00%     86.21% # Class of executed instruction
system.cpu2.op_class::SimdMultAcc                   0      0.00%     86.21% # Class of executed instruction
system.cpu2.op_class::SimdShift                     0      0.00%     86.21% # Class of executed instruction
system.cpu2.op_class::SimdShiftAcc                  0      0.00%     86.21% # Class of executed instruction
system.cpu2.op_class::SimdDiv                       0      0.00%     86.21% # Class of executed instruction
system.cpu2.op_class::SimdSqrt                      0      0.00%     86.21% # Class of executed instruction
system.cpu2.op_class::SimdFloatAdd                  0      0.00%     86.21% # Class of executed instruction
system.cpu2.op_class::SimdFloatAlu                  0      0.00%     86.21% # Class of executed instruction
system.cpu2.op_class::SimdFloatCmp                  0      0.00%     86.21% # Class of executed instruction
system.cpu2.op_class::SimdFloatCvt                  0      0.00%     86.21% # Class of executed instruction
system.cpu2.op_class::SimdFloatDiv                  0      0.00%     86.21% # Class of executed instruction
system.cpu2.op_class::SimdFloatMisc                 0      0.00%     86.21% # Class of executed instruction
system.cpu2.op_class::SimdFloatMult                 0      0.00%     86.21% # Class of executed instruction
system.cpu2.op_class::SimdFloatMultAcc              0      0.00%     86.21% # Class of executed instruction
system.cpu2.op_class::SimdFloatSqrt                 0      0.00%     86.21% # Class of executed instruction
system.cpu2.op_class::SimdReduceAdd                 0      0.00%     86.21% # Class of executed instruction
system.cpu2.op_class::SimdReduceAlu                 0      0.00%     86.21% # Class of executed instruction
system.cpu2.op_class::SimdReduceCmp                 0      0.00%     86.21% # Class of executed instruction
system.cpu2.op_class::SimdFloatReduceAdd            0      0.00%     86.21% # Class of executed instruction
system.cpu2.op_class::SimdFloatReduceCmp            0      0.00%     86.21% # Class of executed instruction
system.cpu2.op_class::SimdAes                       0      0.00%     86.21% # Class of executed instruction
system.cpu2.op_class::SimdAesMix                    0      0.00%     86.21% # Class of executed instruction
system.cpu2.op_class::SimdSha1Hash                  0      0.00%     86.21% # Class of executed instruction
system.cpu2.op_class::SimdSha1Hash2                 0      0.00%     86.21% # Class of executed instruction
system.cpu2.op_class::SimdSha256Hash                0      0.00%     86.21% # Class of executed instruction
system.cpu2.op_class::SimdSha256Hash2               0      0.00%     86.21% # Class of executed instruction
system.cpu2.op_class::SimdShaSigma2                 0      0.00%     86.21% # Class of executed instruction
system.cpu2.op_class::SimdShaSigma3                 0      0.00%     86.21% # Class of executed instruction
system.cpu2.op_class::SimdPredAlu                   0      0.00%     86.21% # Class of executed instruction
system.cpu2.op_class::MemRead                       3     10.34%     96.55% # Class of executed instruction
system.cpu2.op_class::MemWrite                      1      3.45%    100.00% # Class of executed instruction
system.cpu2.op_class::FloatMemRead                  0      0.00%    100.00% # Class of executed instruction
system.cpu2.op_class::FloatMemWrite                 0      0.00%    100.00% # Class of executed instruction
system.cpu2.op_class::IprAccess                     0      0.00%    100.00% # Class of executed instruction
system.cpu2.op_class::InstPrefetch                  0      0.00%    100.00% # Class of executed instruction
system.cpu2.op_class::total                        29                       # Class of executed instruction
system.cpu2.workload.numSyscalls                    0                       # Number of system calls
system.cpu3.Branches                                1                       # Number of branches fetched
system.cpu3.committedInsts                         16                       # Number of instructions committed
system.cpu3.committedOps                           22                       # Number of ops (including micro ops) committed
system.cpu3.idle_fraction                           0                       # Percentage of idle cycles
system.cpu3.l2bus.snoop_filter.hit_multi_requests            2                       # Number of requests hitting in the snoop filter with multiple (>1) holders of the requested data.
system.cpu3.l2bus.snoop_filter.hit_multi_snoops            0                       # Number of snoops hitting in the snoop filter with multiple (>1) holders of the requested data.
system.cpu3.l2bus.snoop_filter.hit_single_requests      1659446                       # Number of requests hitting in the snoop filter with a single holder of the requested data.
system.cpu3.l2bus.snoop_filter.hit_single_snoops         2681                       # Number of snoops hitting in the snoop filter with a single holder of the requested data.
system.cpu3.l2bus.snoop_filter.tot_requests      3238377                       # Total number of requests made to the snoop filter.
system.cpu3.l2bus.snoop_filter.tot_snoops         2681                       # Total number of snoops made to the snoop filter.
system.cpu3.mmucache.mmubus.snoop_filter.hit_multi_requests            0                       # Number of requests hitting in the snoop filter with multiple (>1) holders of the requested data.
system.cpu3.mmucache.mmubus.snoop_filter.hit_multi_snoops            0                       # Number of snoops hitting in the snoop filter with multiple (>1) holders of the requested data.
system.cpu3.mmucache.mmubus.snoop_filter.hit_single_requests            0                       # Number of requests hitting in the snoop filter with a single holder of the requested data.
system.cpu3.mmucache.mmubus.snoop_filter.hit_single_snoops            0                       # Number of snoops hitting in the snoop filter with a single holder of the requested data.
system.cpu3.mmucache.mmubus.snoop_filter.tot_requests            0                       # Total number of requests made to the snoop filter.
system.cpu3.mmucache.mmubus.snoop_filter.tot_snoops            0                       # Total number of snoops made to the snoop filter.
system.cpu3.not_idle_fraction                       1                       # Percentage of non-idle cycles
system.cpu3.numCycles                              30                       # number of cpu cycles simulated
system.cpu3.numWorkItemsCompleted                   0                       # number of work items this cpu completed
system.cpu3.numWorkItemsStarted                     0                       # number of work items this cpu started
system.cpu3.num_busy_cycles                        30                       # Number of busy cycles
system.cpu3.num_cc_register_reads                   5                       # number of times the CC registers were read
system.cpu3.num_cc_register_writes                  6                       # number of times the CC registers were written
system.cpu3.num_conditional_control_insts            1                       # number of instructions that are conditional controls
system.cpu3.num_fp_alu_accesses                    13                       # Number of float alu accesses
system.cpu3.num_fp_insts                           13                       # number of float instructions
system.cpu3.num_fp_register_reads                  23                       # number of times the floating registers were read
system.cpu3.num_fp_register_writes                 12                       # number of times the floating registers were written
system.cpu3.num_func_calls                          0                       # number of times a function call or return occured
system.cpu3.num_idle_cycles                         0                       # Number of idle cycles
system.cpu3.num_int_alu_accesses                   14                       # Number of integer alu accesses
system.cpu3.num_int_insts                          14                       # number of integer instructions
system.cpu3.num_int_register_reads                 31                       # number of times the integer registers were read
system.cpu3.num_int_register_writes                 8                       # number of times the integer registers were written
system.cpu3.num_load_insts                          6                       # Number of load instructions
system.cpu3.num_mem_refs                            7                       # number of memory refs
system.cpu3.num_store_insts                         1                       # Number of store instructions
system.cpu3.num_vec_alu_accesses                    0                       # Number of vector alu accesses
system.cpu3.num_vec_insts                           0                       # number of vector instructions
system.cpu3.num_vec_register_reads                  0                       # number of times the vector registers were read
system.cpu3.num_vec_register_writes                 0                       # number of times the vector registers were written
system.cpu3.op_class::No_OpClass                    0      0.00%      0.00% # Class of executed instruction
system.cpu3.op_class::IntAlu                        9     40.91%     40.91% # Class of executed instruction
system.cpu3.op_class::IntMult                       0      0.00%     40.91% # Class of executed instruction
system.cpu3.op_class::IntDiv                        0      0.00%     40.91% # Class of executed instruction
system.cpu3.op_class::FloatAdd                      0      0.00%     40.91% # Class of executed instruction
system.cpu3.op_class::FloatCmp                      0      0.00%     40.91% # Class of executed instruction
system.cpu3.op_class::FloatCvt                      0      0.00%     40.91% # Class of executed instruction
system.cpu3.op_class::FloatMult                     0      0.00%     40.91% # Class of executed instruction
system.cpu3.op_class::FloatMultAcc                  0      0.00%     40.91% # Class of executed instruction
system.cpu3.op_class::FloatDiv                      0      0.00%     40.91% # Class of executed instruction
system.cpu3.op_class::FloatMisc                     0      0.00%     40.91% # Class of executed instruction
system.cpu3.op_class::FloatSqrt                     0      0.00%     40.91% # Class of executed instruction
system.cpu3.op_class::SimdAdd                       0      0.00%     40.91% # Class of executed instruction
system.cpu3.op_class::SimdAddAcc                    0      0.00%     40.91% # Class of executed instruction
system.cpu3.op_class::SimdAlu                       0      0.00%     40.91% # Class of executed instruction
system.cpu3.op_class::SimdCmp                       0      0.00%     40.91% # Class of executed instruction
system.cpu3.op_class::SimdCvt                       0      0.00%     40.91% # Class of executed instruction
system.cpu3.op_class::SimdMisc                      0      0.00%     40.91% # Class of executed instruction
system.cpu3.op_class::SimdMult                      0      0.00%     40.91% # Class of executed instruction
system.cpu3.op_class::SimdMultAcc                   0      0.00%     40.91% # Class of executed instruction
system.cpu3.op_class::SimdShift                     0      0.00%     40.91% # Class of executed instruction
system.cpu3.op_class::SimdShiftAcc                  0      0.00%     40.91% # Class of executed instruction
system.cpu3.op_class::SimdDiv                       0      0.00%     40.91% # Class of executed instruction
system.cpu3.op_class::SimdSqrt                      0      0.00%     40.91% # Class of executed instruction
system.cpu3.op_class::SimdFloatAdd                  4     18.18%     59.09% # Class of executed instruction
system.cpu3.op_class::SimdFloatAlu                  0      0.00%     59.09% # Class of executed instruction
system.cpu3.op_class::SimdFloatCmp                  0      0.00%     59.09% # Class of executed instruction
system.cpu3.op_class::SimdFloatCvt                  0      0.00%     59.09% # Class of executed instruction
system.cpu3.op_class::SimdFloatDiv                  0      0.00%     59.09% # Class of executed instruction
system.cpu3.op_class::SimdFloatMisc                 0      0.00%     59.09% # Class of executed instruction
system.cpu3.op_class::SimdFloatMult                 2      9.09%     68.18% # Class of executed instruction
system.cpu3.op_class::SimdFloatMultAcc              0      0.00%     68.18% # Class of executed instruction
system.cpu3.op_class::SimdFloatSqrt                 0      0.00%     68.18% # Class of executed instruction
system.cpu3.op_class::SimdReduceAdd                 0      0.00%     68.18% # Class of executed instruction
system.cpu3.op_class::SimdReduceAlu                 0      0.00%     68.18% # Class of executed instruction
system.cpu3.op_class::SimdReduceCmp                 0      0.00%     68.18% # Class of executed instruction
system.cpu3.op_class::SimdFloatReduceAdd            0      0.00%     68.18% # Class of executed instruction
system.cpu3.op_class::SimdFloatReduceCmp            0      0.00%     68.18% # Class of executed instruction
system.cpu3.op_class::SimdAes                       0      0.00%     68.18% # Class of executed instruction
system.cpu3.op_class::SimdAesMix                    0      0.00%     68.18% # Class of executed instruction
system.cpu3.op_class::SimdSha1Hash                  0      0.00%     68.18% # Class of executed instruction
system.cpu3.op_class::SimdSha1Hash2                 0      0.00%     68.18% # Class of executed instruction
system.cpu3.op_class::SimdSha256Hash                0      0.00%     68.18% # Class of executed instruction
system.cpu3.op_class::SimdSha256Hash2               0      0.00%     68.18% # Class of executed instruction
system.cpu3.op_class::SimdShaSigma2                 0      0.00%     68.18% # Class of executed instruction
system.cpu3.op_class::SimdShaSigma3                 0      0.00%     68.18% # Class of executed instruction
system.cpu3.op_class::SimdPredAlu                   0      0.00%     68.18% # Class of executed instruction
system.cpu3.op_class::MemRead                       2      9.09%     77.27% # Class of executed instruction
system.cpu3.op_class::MemWrite                      0      0.00%     77.27% # Class of executed instruction
system.cpu3.op_class::FloatMemRead                  4     18.18%     95.45% # Class of executed instruction
system.cpu3.op_class::FloatMemWrite                 1      4.55%    100.00% # Class of executed instruction
system.cpu3.op_class::IprAccess                     0      0.00%    100.00% # Class of executed instruction
system.cpu3.op_class::InstPrefetch                  0      0.00%    100.00% # Class of executed instruction
system.cpu3.op_class::total                        22                       # Class of executed instruction
system.cpu3.workload.numSyscalls                    0                       # Number of system calls
system.l3bus.snoop_filter.hit_multi_requests            0                       # Number of requests hitting in the snoop filter with multiple (>1) holders of the requested data.
system.l3bus.snoop_filter.hit_multi_snoops            0                       # Number of snoops hitting in the snoop filter with multiple (>1) holders of the requested data.
system.l3bus.snoop_filter.hit_single_requests      1240742                       # Number of requests hitting in the snoop filter with a single holder of the requested data.
system.l3bus.snoop_filter.hit_single_snoops            0                       # Number of snoops hitting in the snoop filter with a single holder of the requested data.
system.l3bus.snoop_filter.tot_requests        2496384                       # Total number of requests made to the snoop filter.
system.l3bus.snoop_filter.tot_snoops                0                       # Total number of snoops made to the snoop filter.
system.membus.snoop_filter.hit_multi_requests            0                       # Number of requests hitting in the snoop filter with multiple (>1) holders of the requested data.
system.membus.snoop_filter.hit_multi_snoops            0                       # Number of snoops hitting in the snoop filter with multiple (>1) holders of the requested data.
system.membus.snoop_filter.hit_single_requests       590250                       # Number of requests hitting in the snoop filter with a single holder of the requested data.
system.membus.snoop_filter.hit_single_snoops            0                       # Number of snoops hitting in the snoop filter with a single holder of the requested data.
system.membus.snoop_filter.tot_requests       1258468                       # Total number of requests made to the snoop filter.
system.membus.snoop_filter.tot_snoops               0                       # Total number of snoops made to the snoop filter.
system.switch_cpus0.cc_regfile_reads        168515011                       # number of cc regfile reads
system.switch_cpus0.cc_regfile_writes       114453247                       # number of cc regfile writes
system.switch_cpus0.committedInsts          127359351                       # Number of Instructions Simulated
system.switch_cpus0.committedOps            237858546                       # Number of Ops (including micro ops) Simulated
system.switch_cpus0.cpi                      0.947527                       # CPI: Cycles Per Instruction
system.switch_cpus0.cpi_total                0.947527                       # CPI: Total CPI of All Threads
system.switch_cpus0.fp_regfile_reads           858624                       # number of floating regfile reads
system.switch_cpus0.fp_regfile_writes          654577                       # number of floating regfile writes
system.switch_cpus0.idleCycles                 100381                       # Total number of cycles that the CPU has spent unscheduled due to idling
system.switch_cpus0.iew.branchMispredicts      2919962                       # Number of branch mispredicts detected at execute
system.switch_cpus0.iew.exec_branches        30654400                       # Number of branches executed
system.switch_cpus0.iew.exec_nop                    0                       # number of nop insts executed
system.switch_cpus0.iew.exec_rate            2.755952                       # Inst execution rate
system.switch_cpus0.iew.exec_refs            66443577                       # number of memory reference insts executed
system.switch_cpus0.iew.exec_stores          16392946                       # Number of stores executed
system.switch_cpus0.iew.exec_swp                    0                       # number of swp insts executed
system.switch_cpus0.iew.iewBlockCycles       20561552                       # Number of cycles IEW is blocking
system.switch_cpus0.iew.iewDispLoadInsts     61913429                       # Number of dispatched load instructions
system.switch_cpus0.iew.iewDispNonSpecInsts            3                       # Number of dispatched non-speculative instructions
system.switch_cpus0.iew.iewDispSquashedInsts        76826                       # Number of squashed instructions skipped by dispatch
system.switch_cpus0.iew.iewDispStoreInsts     20167168                       # Number of dispatched store instructions
system.switch_cpus0.iew.iewDispatchedInsts    404439168                       # Number of instructions dispatched to IQ
system.switch_cpus0.iew.iewExecLoadInsts     50050631                       # Number of load instructions executed
system.switch_cpus0.iew.iewExecSquashedInsts      5510201                       # Number of squashed instructions skipped in execute
system.switch_cpus0.iew.iewExecutedInsts    332578629                       # Number of executed instructions
system.switch_cpus0.iew.iewIQFullEvents          6468                       # Number of times the IQ has become full, causing a stall
system.switch_cpus0.iew.iewIdleCycles               0                       # Number of cycles IEW is idle
system.switch_cpus0.iew.iewLSQFullEvents        19734                       # Number of times the LSQ has become full, causing a stall
system.switch_cpus0.iew.iewSquashCycles       2588736                       # Number of cycles IEW is squashing
system.switch_cpus0.iew.iewUnblockCycles        27669                       # Number of cycles IEW is unblocking
system.switch_cpus0.iew.memOrderViolationEvents        19615                       # Number of memory order violations
system.switch_cpus0.iew.predictedNotTakenIncorrect      1614192                       # Number of branches that were predicted not taken incorrectly
system.switch_cpus0.iew.predictedTakenIncorrect      1305770                       # Number of branches that were predicted taken incorrectly
system.switch_cpus0.iew.wb_consumers        459805606                       # num instructions consuming a value
system.switch_cpus0.iew.wb_count            330206522                       # cumulative count of insts written-back
system.switch_cpus0.iew.wb_fanout            0.559808                       # average fanout of values written-back
system.switch_cpus0.iew.wb_producers        257402944                       # num instructions producing a value
system.switch_cpus0.iew.wb_rate              2.736295                       # insts written-back per cycle
system.switch_cpus0.iew.wb_sent             331955586                       # cumulative count of insts sent to commit
system.switch_cpus0.int_regfile_reads       515269072                       # number of integer regfile reads
system.switch_cpus0.int_regfile_writes      294989529                       # number of integer regfile writes
system.switch_cpus0.ipc                      1.055378                       # IPC: Instructions Per Cycle
system.switch_cpus0.ipc_total                1.055378                       # IPC: Total IPC of All Threads
system.switch_cpus0.iq.FU_type_0::No_OpClass      1797723      0.53%      0.53% # Type of FU issued
system.switch_cpus0.iq.FU_type_0::IntAlu    260882321     77.16%     77.70% # Type of FU issued
system.switch_cpus0.iq.FU_type_0::IntMult      1647490      0.49%     78.18% # Type of FU issued
system.switch_cpus0.iq.FU_type_0::IntDiv      4747594      1.40%     79.59% # Type of FU issued
system.switch_cpus0.iq.FU_type_0::FloatAdd        28535      0.01%     79.60% # Type of FU issued
system.switch_cpus0.iq.FU_type_0::FloatCmp            0      0.00%     79.60% # Type of FU issued
system.switch_cpus0.iq.FU_type_0::FloatCvt            0      0.00%     79.60% # Type of FU issued
system.switch_cpus0.iq.FU_type_0::FloatMult            0      0.00%     79.60% # Type of FU issued
system.switch_cpus0.iq.FU_type_0::FloatMultAcc            0      0.00%     79.60% # Type of FU issued
system.switch_cpus0.iq.FU_type_0::FloatDiv            0      0.00%     79.60% # Type of FU issued
system.switch_cpus0.iq.FU_type_0::FloatMisc            0      0.00%     79.60% # Type of FU issued
system.switch_cpus0.iq.FU_type_0::FloatSqrt            0      0.00%     79.60% # Type of FU issued
system.switch_cpus0.iq.FU_type_0::SimdAdd            0      0.00%     79.60% # Type of FU issued
system.switch_cpus0.iq.FU_type_0::SimdAddAcc            0      0.00%     79.60% # Type of FU issued
system.switch_cpus0.iq.FU_type_0::SimdAlu        27100      0.01%     79.60% # Type of FU issued
system.switch_cpus0.iq.FU_type_0::SimdCmp            0      0.00%     79.60% # Type of FU issued
system.switch_cpus0.iq.FU_type_0::SimdCvt            0      0.00%     79.60% # Type of FU issued
system.switch_cpus0.iq.FU_type_0::SimdMisc        59380      0.02%     79.62% # Type of FU issued
system.switch_cpus0.iq.FU_type_0::SimdMult            0      0.00%     79.62% # Type of FU issued
system.switch_cpus0.iq.FU_type_0::SimdMultAcc            0      0.00%     79.62% # Type of FU issued
system.switch_cpus0.iq.FU_type_0::SimdShift            0      0.00%     79.62% # Type of FU issued
system.switch_cpus0.iq.FU_type_0::SimdShiftAcc            0      0.00%     79.62% # Type of FU issued
system.switch_cpus0.iq.FU_type_0::SimdDiv            0      0.00%     79.62% # Type of FU issued
system.switch_cpus0.iq.FU_type_0::SimdSqrt            0      0.00%     79.62% # Type of FU issued
system.switch_cpus0.iq.FU_type_0::SimdFloatAdd        56442      0.02%     79.64% # Type of FU issued
system.switch_cpus0.iq.FU_type_0::SimdFloatAlu            0      0.00%     79.64% # Type of FU issued
system.switch_cpus0.iq.FU_type_0::SimdFloatCmp            0      0.00%     79.64% # Type of FU issued
system.switch_cpus0.iq.FU_type_0::SimdFloatCvt       126198      0.04%     79.68% # Type of FU issued
system.switch_cpus0.iq.FU_type_0::SimdFloatDiv         1460      0.00%     79.68% # Type of FU issued
system.switch_cpus0.iq.FU_type_0::SimdFloatMisc            0      0.00%     79.68% # Type of FU issued
system.switch_cpus0.iq.FU_type_0::SimdFloatMult            0      0.00%     79.68% # Type of FU issued
system.switch_cpus0.iq.FU_type_0::SimdFloatMultAcc            0      0.00%     79.68% # Type of FU issued
system.switch_cpus0.iq.FU_type_0::SimdFloatSqrt            0      0.00%     79.68% # Type of FU issued
system.switch_cpus0.iq.FU_type_0::SimdReduceAdd            0      0.00%     79.68% # Type of FU issued
system.switch_cpus0.iq.FU_type_0::SimdReduceAlu            0      0.00%     79.68% # Type of FU issued
system.switch_cpus0.iq.FU_type_0::SimdReduceCmp            0      0.00%     79.68% # Type of FU issued
system.switch_cpus0.iq.FU_type_0::SimdFloatReduceAdd            0      0.00%     79.68% # Type of FU issued
system.switch_cpus0.iq.FU_type_0::SimdFloatReduceCmp            0      0.00%     79.68% # Type of FU issued
system.switch_cpus0.iq.FU_type_0::SimdAes            0      0.00%     79.68% # Type of FU issued
system.switch_cpus0.iq.FU_type_0::SimdAesMix            0      0.00%     79.68% # Type of FU issued
system.switch_cpus0.iq.FU_type_0::SimdSha1Hash            0      0.00%     79.68% # Type of FU issued
system.switch_cpus0.iq.FU_type_0::SimdSha1Hash2            0      0.00%     79.68% # Type of FU issued
system.switch_cpus0.iq.FU_type_0::SimdSha256Hash            0      0.00%     79.68% # Type of FU issued
system.switch_cpus0.iq.FU_type_0::SimdSha256Hash2            0      0.00%     79.68% # Type of FU issued
system.switch_cpus0.iq.FU_type_0::SimdShaSigma2            0      0.00%     79.68% # Type of FU issued
system.switch_cpus0.iq.FU_type_0::SimdShaSigma3            0      0.00%     79.68% # Type of FU issued
system.switch_cpus0.iq.FU_type_0::SimdPredAlu            0      0.00%     79.68% # Type of FU issued
system.switch_cpus0.iq.FU_type_0::MemRead     51384685     15.20%     94.87% # Type of FU issued
system.switch_cpus0.iq.FU_type_0::MemWrite     16592854      4.91%     99.78% # Type of FU issued
system.switch_cpus0.iq.FU_type_0::FloatMemRead       434385      0.13%     99.91% # Type of FU issued
system.switch_cpus0.iq.FU_type_0::FloatMemWrite       302668      0.09%    100.00% # Type of FU issued
system.switch_cpus0.iq.FU_type_0::IprAccess            0      0.00%    100.00% # Type of FU issued
system.switch_cpus0.iq.FU_type_0::InstPrefetch            0      0.00%    100.00% # Type of FU issued
system.switch_cpus0.iq.FU_type_0::total     338088835                       # Type of FU issued
system.switch_cpus0.iq.fp_alu_accesses        1057730                       # Number of floating point alu accesses
system.switch_cpus0.iq.fp_inst_queue_reads      2106039                       # Number of floating instruction queue reads
system.switch_cpus0.iq.fp_inst_queue_wakeup_accesses      1015620                       # Number of floating instruction queue wakeup accesses
system.switch_cpus0.iq.fp_inst_queue_writes      1220068                       # Number of floating instruction queue writes
system.switch_cpus0.iq.fu_busy_cnt            5756491                       # FU busy when requested
system.switch_cpus0.iq.fu_busy_rate          0.017027                       # FU busy rate (busy events/executed inst)
system.switch_cpus0.iq.fu_full::No_OpClass            0      0.00%      0.00% # attempts to use FU when none available
system.switch_cpus0.iq.fu_full::IntAlu        4860940     84.44%     84.44% # attempts to use FU when none available
system.switch_cpus0.iq.fu_full::IntMult             0      0.00%     84.44% # attempts to use FU when none available
system.switch_cpus0.iq.fu_full::IntDiv              0      0.00%     84.44% # attempts to use FU when none available
system.switch_cpus0.iq.fu_full::FloatAdd            0      0.00%     84.44% # attempts to use FU when none available
system.switch_cpus0.iq.fu_full::FloatCmp            0      0.00%     84.44% # attempts to use FU when none available
system.switch_cpus0.iq.fu_full::FloatCvt            0      0.00%     84.44% # attempts to use FU when none available
system.switch_cpus0.iq.fu_full::FloatMult            0      0.00%     84.44% # attempts to use FU when none available
system.switch_cpus0.iq.fu_full::FloatMultAcc            0      0.00%     84.44% # attempts to use FU when none available
system.switch_cpus0.iq.fu_full::FloatDiv            0      0.00%     84.44% # attempts to use FU when none available
system.switch_cpus0.iq.fu_full::FloatMisc            0      0.00%     84.44% # attempts to use FU when none available
system.switch_cpus0.iq.fu_full::FloatSqrt            0      0.00%     84.44% # attempts to use FU when none available
system.switch_cpus0.iq.fu_full::SimdAdd             0      0.00%     84.44% # attempts to use FU when none available
system.switch_cpus0.iq.fu_full::SimdAddAcc            0      0.00%     84.44% # attempts to use FU when none available
system.switch_cpus0.iq.fu_full::SimdAlu             0      0.00%     84.44% # attempts to use FU when none available
system.switch_cpus0.iq.fu_full::SimdCmp             0      0.00%     84.44% # attempts to use FU when none available
system.switch_cpus0.iq.fu_full::SimdCvt             0      0.00%     84.44% # attempts to use FU when none available
system.switch_cpus0.iq.fu_full::SimdMisc            0      0.00%     84.44% # attempts to use FU when none available
system.switch_cpus0.iq.fu_full::SimdMult            0      0.00%     84.44% # attempts to use FU when none available
system.switch_cpus0.iq.fu_full::SimdMultAcc            0      0.00%     84.44% # attempts to use FU when none available
system.switch_cpus0.iq.fu_full::SimdShift            0      0.00%     84.44% # attempts to use FU when none available
system.switch_cpus0.iq.fu_full::SimdShiftAcc            0      0.00%     84.44% # attempts to use FU when none available
system.switch_cpus0.iq.fu_full::SimdDiv             0      0.00%     84.44% # attempts to use FU when none available
system.switch_cpus0.iq.fu_full::SimdSqrt            0      0.00%     84.44% # attempts to use FU when none available
system.switch_cpus0.iq.fu_full::SimdFloatAdd            0      0.00%     84.44% # attempts to use FU when none available
system.switch_cpus0.iq.fu_full::SimdFloatAlu            0      0.00%     84.44% # attempts to use FU when none available
system.switch_cpus0.iq.fu_full::SimdFloatCmp            0      0.00%     84.44% # attempts to use FU when none available
system.switch_cpus0.iq.fu_full::SimdFloatCvt            0      0.00%     84.44% # attempts to use FU when none available
system.switch_cpus0.iq.fu_full::SimdFloatDiv            0      0.00%     84.44% # attempts to use FU when none available
system.switch_cpus0.iq.fu_full::SimdFloatMisc            0      0.00%     84.44% # attempts to use FU when none available
system.switch_cpus0.iq.fu_full::SimdFloatMult            0      0.00%     84.44% # attempts to use FU when none available
system.switch_cpus0.iq.fu_full::SimdFloatMultAcc            0      0.00%     84.44% # attempts to use FU when none available
system.switch_cpus0.iq.fu_full::SimdFloatSqrt            0      0.00%     84.44% # attempts to use FU when none available
system.switch_cpus0.iq.fu_full::SimdReduceAdd            0      0.00%     84.44% # attempts to use FU when none available
system.switch_cpus0.iq.fu_full::SimdReduceAlu            0      0.00%     84.44% # attempts to use FU when none available
system.switch_cpus0.iq.fu_full::SimdReduceCmp            0      0.00%     84.44% # attempts to use FU when none available
system.switch_cpus0.iq.fu_full::SimdFloatReduceAdd            0      0.00%     84.44% # attempts to use FU when none available
system.switch_cpus0.iq.fu_full::SimdFloatReduceCmp            0      0.00%     84.44% # attempts to use FU when none available
system.switch_cpus0.iq.fu_full::SimdAes             0      0.00%     84.44% # attempts to use FU when none available
system.switch_cpus0.iq.fu_full::SimdAesMix            0      0.00%     84.44% # attempts to use FU when none available
system.switch_cpus0.iq.fu_full::SimdSha1Hash            0      0.00%     84.44% # attempts to use FU when none available
system.switch_cpus0.iq.fu_full::SimdSha1Hash2            0      0.00%     84.44% # attempts to use FU when none available
system.switch_cpus0.iq.fu_full::SimdSha256Hash            0      0.00%     84.44% # attempts to use FU when none available
system.switch_cpus0.iq.fu_full::SimdSha256Hash2            0      0.00%     84.44% # attempts to use FU when none available
system.switch_cpus0.iq.fu_full::SimdShaSigma2            0      0.00%     84.44% # attempts to use FU when none available
system.switch_cpus0.iq.fu_full::SimdShaSigma3            0      0.00%     84.44% # attempts to use FU when none available
system.switch_cpus0.iq.fu_full::SimdPredAlu            0      0.00%     84.44% # attempts to use FU when none available
system.switch_cpus0.iq.fu_full::MemRead        705113     12.25%     96.69% # attempts to use FU when none available
system.switch_cpus0.iq.fu_full::MemWrite       178872      3.11%     99.80% # attempts to use FU when none available
system.switch_cpus0.iq.fu_full::FloatMemRead         4711      0.08%     99.88% # attempts to use FU when none available
system.switch_cpus0.iq.fu_full::FloatMemWrite         6855      0.12%    100.00% # attempts to use FU when none available
system.switch_cpus0.iq.fu_full::IprAccess            0      0.00%    100.00% # attempts to use FU when none available
system.switch_cpus0.iq.fu_full::InstPrefetch            0      0.00%    100.00% # attempts to use FU when none available
system.switch_cpus0.iq.int_alu_accesses     340989873                       # Number of integer alu accesses
system.switch_cpus0.iq.int_inst_queue_reads    802024430                       # Number of integer instruction queue reads
system.switch_cpus0.iq.int_inst_queue_wakeup_accesses    329190902                       # Number of integer instruction queue wakeup accesses
system.switch_cpus0.iq.int_inst_queue_writes    569818414                       # Number of integer instruction queue writes
system.switch_cpus0.iq.iqInstsAdded         404439159                       # Number of instructions added to the IQ (excludes non-spec)
system.switch_cpus0.iq.iqInstsIssued        338088835                       # Number of instructions issued
system.switch_cpus0.iq.iqNonSpecInstsAdded            9                       # Number of non-speculative instructions added to the IQ
system.switch_cpus0.iq.iqSquashedInstsExamined    166580525                       # Number of squashed instructions iterated over during squash; mainly for profiling
system.switch_cpus0.iq.iqSquashedInstsIssued      1620208                       # Number of squashed instructions issued
system.switch_cpus0.iq.iqSquashedNonSpecRemoved            9                       # Number of squashed non-spec instructions that were removed
system.switch_cpus0.iq.iqSquashedOperandsExamined    243749640                       # Number of squashed operands that are examined and possibly removed from graph
system.switch_cpus0.iq.issued_per_cycle::samples    120576105                       # Number of insts issued each cycle
system.switch_cpus0.iq.issued_per_cycle::mean     2.803946                       # Number of insts issued each cycle
system.switch_cpus0.iq.issued_per_cycle::stdev     2.591841                       # Number of insts issued each cycle
system.switch_cpus0.iq.issued_per_cycle::underflows            0      0.00%      0.00% # Number of insts issued each cycle
system.switch_cpus0.iq.issued_per_cycle::0     37216660     30.87%     30.87% # Number of insts issued each cycle
system.switch_cpus0.iq.issued_per_cycle::1     12701741     10.53%     41.40% # Number of insts issued each cycle
system.switch_cpus0.iq.issued_per_cycle::2     11930864      9.89%     51.29% # Number of insts issued each cycle
system.switch_cpus0.iq.issued_per_cycle::3     11701214      9.70%     61.00% # Number of insts issued each cycle
system.switch_cpus0.iq.issued_per_cycle::4     11701885      9.70%     70.70% # Number of insts issued each cycle
system.switch_cpus0.iq.issued_per_cycle::5     11294934      9.37%     80.07% # Number of insts issued each cycle
system.switch_cpus0.iq.issued_per_cycle::6     10575054      8.77%     88.84% # Number of insts issued each cycle
system.switch_cpus0.iq.issued_per_cycle::7      7940834      6.59%     95.43% # Number of insts issued each cycle
system.switch_cpus0.iq.issued_per_cycle::8      5512919      4.57%    100.00% # Number of insts issued each cycle
system.switch_cpus0.iq.issued_per_cycle::overflows            0      0.00%    100.00% # Number of insts issued each cycle
system.switch_cpus0.iq.issued_per_cycle::min_value            0                       # Number of insts issued each cycle
system.switch_cpus0.iq.issued_per_cycle::max_value            8                       # Number of insts issued each cycle
system.switch_cpus0.iq.issued_per_cycle::total    120576105                       # Number of insts issued each cycle
system.switch_cpus0.iq.rate                  2.801613                       # Inst issue rate
system.switch_cpus0.iq.vec_alu_accesses             0                       # Number of vector alu accesses
system.switch_cpus0.iq.vec_inst_queue_reads            0                       # Number of vector instruction queue reads
system.switch_cpus0.iq.vec_inst_queue_wakeup_accesses            0                       # Number of vector instruction queue wakeup accesses
system.switch_cpus0.iq.vec_inst_queue_writes            0                       # Number of vector instruction queue writes
system.switch_cpus0.memDep0.conflictingLoads      3502442                       # Number of conflicting loads.
system.switch_cpus0.memDep0.conflictingStores      1973683                       # Number of conflicting stores.
system.switch_cpus0.memDep0.insertedLoads     61913429                       # Number of loads inserted to the mem dependence unit.
system.switch_cpus0.memDep0.insertedStores     20167168                       # Number of stores inserted to the mem dependence unit.
system.switch_cpus0.misc_regfile_reads      129719037                       # number of misc regfile reads
system.switch_cpus0.misc_regfile_writes             1                       # number of misc regfile writes
system.switch_cpus0.numCycles               120676486                       # number of cpu cycles simulated
system.switch_cpus0.numWorkItemsCompleted            0                       # number of work items this cpu completed
system.switch_cpus0.numWorkItemsStarted             0                       # number of work items this cpu started
system.switch_cpus0.timesIdled                    374                       # Number of times that the entire CPU went into an idle state and unscheduled itself
system.switch_cpus1.cc_regfile_reads        207764070                       # number of cc regfile reads
system.switch_cpus1.cc_regfile_writes       212908267                       # number of cc regfile writes
system.switch_cpus1.committedInsts          217809378                       # Number of Instructions Simulated
system.switch_cpus1.committedOps            426732771                       # Number of Ops (including micro ops) Simulated
system.switch_cpus1.cpi                      0.554046                       # CPI: Cycles Per Instruction
system.switch_cpus1.cpi_total                0.554046                       # CPI: Total CPI of All Threads
system.switch_cpus1.fp_regfile_reads             6894                       # number of floating regfile reads
system.switch_cpus1.fp_regfile_writes            6986                       # number of floating regfile writes
system.switch_cpus1.idleCycles                 249892                       # Total number of cycles that the CPU has spent unscheduled due to idling
system.switch_cpus1.iew.branchMispredicts      2473559                       # Number of branch mispredicts detected at execute
system.switch_cpus1.iew.exec_branches        40724763                       # Number of branches executed
system.switch_cpus1.iew.exec_nop                    0                       # number of nop insts executed
system.switch_cpus1.iew.exec_rate            4.208359                       # Inst execution rate
system.switch_cpus1.iew.exec_refs           147858618                       # number of memory reference insts executed
system.switch_cpus1.iew.exec_stores          40210459                       # Number of stores executed
system.switch_cpus1.iew.exec_swp                    0                       # number of swp insts executed
system.switch_cpus1.iew.iewBlockCycles       14732551                       # Number of cycles IEW is blocking
system.switch_cpus1.iew.iewDispLoadInsts    117158260                       # Number of dispatched load instructions
system.switch_cpus1.iew.iewDispNonSpecInsts            0                       # Number of dispatched non-speculative instructions
system.switch_cpus1.iew.iewDispSquashedInsts        10821                       # Number of squashed instructions skipped by dispatch
system.switch_cpus1.iew.iewDispStoreInsts     46838403                       # Number of dispatched store instructions
system.switch_cpus1.iew.iewDispatchedInsts    551912805                       # Number of instructions dispatched to IQ
system.switch_cpus1.iew.iewExecLoadInsts    107648159                       # Number of load instructions executed
system.switch_cpus1.iew.iewExecSquashedInsts      6842733                       # Number of squashed instructions skipped in execute
system.switch_cpus1.iew.iewExecutedInsts    507849999                       # Number of executed instructions
system.switch_cpus1.iew.iewIQFullEvents            34                       # Number of times the IQ has become full, causing a stall
system.switch_cpus1.iew.iewIdleCycles               0                       # Number of cycles IEW is idle
system.switch_cpus1.iew.iewLSQFullEvents         3028                       # Number of times the LSQ has become full, causing a stall
system.switch_cpus1.iew.iewSquashCycles       2018391                       # Number of cycles IEW is squashing
system.switch_cpus1.iew.iewUnblockCycles         3073                       # Number of cycles IEW is unblocking
system.switch_cpus1.iew.memOrderViolationEvents        35072                       # Number of memory order violations
system.switch_cpus1.iew.predictedNotTakenIncorrect      1231909                       # Number of branches that were predicted not taken incorrectly
system.switch_cpus1.iew.predictedTakenIncorrect      1241650                       # Number of branches that were predicted taken incorrectly
system.switch_cpus1.iew.wb_consumers        570277487                       # num instructions consuming a value
system.switch_cpus1.iew.wb_count            504686617                       # cumulative count of insts written-back
system.switch_cpus1.iew.wb_fanout            0.668564                       # average fanout of values written-back
system.switch_cpus1.iew.wb_producers        381266879                       # num instructions producing a value
system.switch_cpus1.iew.wb_rate              4.182145                       # insts written-back per cycle
system.switch_cpus1.iew.wb_sent             506796782                       # cumulative count of insts sent to commit
system.switch_cpus1.int_regfile_reads       733751369                       # number of integer regfile reads
system.switch_cpus1.int_regfile_writes      425963561                       # number of integer regfile writes
system.switch_cpus1.ipc                      1.804903                       # IPC: Instructions Per Cycle
system.switch_cpus1.ipc_total                1.804903                       # IPC: Total IPC of All Threads
system.switch_cpus1.iq.FU_type_0::No_OpClass      1122712      0.22%      0.22% # Type of FU issued
system.switch_cpus1.iq.FU_type_0::IntAlu    359354651     69.82%     70.04% # Type of FU issued
system.switch_cpus1.iq.FU_type_0::IntMult      3043999      0.59%     70.63% # Type of FU issued
system.switch_cpus1.iq.FU_type_0::IntDiv        32116      0.01%     70.64% # Type of FU issued
system.switch_cpus1.iq.FU_type_0::FloatAdd            0      0.00%     70.64% # Type of FU issued
system.switch_cpus1.iq.FU_type_0::FloatCmp            0      0.00%     70.64% # Type of FU issued
system.switch_cpus1.iq.FU_type_0::FloatCvt            0      0.00%     70.64% # Type of FU issued
system.switch_cpus1.iq.FU_type_0::FloatMult            0      0.00%     70.64% # Type of FU issued
system.switch_cpus1.iq.FU_type_0::FloatMultAcc            0      0.00%     70.64% # Type of FU issued
system.switch_cpus1.iq.FU_type_0::FloatDiv            0      0.00%     70.64% # Type of FU issued
system.switch_cpus1.iq.FU_type_0::FloatMisc            0      0.00%     70.64% # Type of FU issued
system.switch_cpus1.iq.FU_type_0::FloatSqrt            0      0.00%     70.64% # Type of FU issued
system.switch_cpus1.iq.FU_type_0::SimdAdd            0      0.00%     70.64% # Type of FU issued
system.switch_cpus1.iq.FU_type_0::SimdAddAcc            0      0.00%     70.64% # Type of FU issued
system.switch_cpus1.iq.FU_type_0::SimdAlu            0      0.00%     70.64% # Type of FU issued
system.switch_cpus1.iq.FU_type_0::SimdCmp            0      0.00%     70.64% # Type of FU issued
system.switch_cpus1.iq.FU_type_0::SimdCvt            0      0.00%     70.64% # Type of FU issued
system.switch_cpus1.iq.FU_type_0::SimdMisc            0      0.00%     70.64% # Type of FU issued
system.switch_cpus1.iq.FU_type_0::SimdMult            0      0.00%     70.64% # Type of FU issued
system.switch_cpus1.iq.FU_type_0::SimdMultAcc            0      0.00%     70.64% # Type of FU issued
system.switch_cpus1.iq.FU_type_0::SimdShift            0      0.00%     70.64% # Type of FU issued
system.switch_cpus1.iq.FU_type_0::SimdShiftAcc            0      0.00%     70.64% # Type of FU issued
system.switch_cpus1.iq.FU_type_0::SimdDiv            0      0.00%     70.64% # Type of FU issued
system.switch_cpus1.iq.FU_type_0::SimdSqrt            0      0.00%     70.64% # Type of FU issued
system.switch_cpus1.iq.FU_type_0::SimdFloatAdd            0      0.00%     70.64% # Type of FU issued
system.switch_cpus1.iq.FU_type_0::SimdFloatAlu            0      0.00%     70.64% # Type of FU issued
system.switch_cpus1.iq.FU_type_0::SimdFloatCmp            0      0.00%     70.64% # Type of FU issued
system.switch_cpus1.iq.FU_type_0::SimdFloatCvt            0      0.00%     70.64% # Type of FU issued
system.switch_cpus1.iq.FU_type_0::SimdFloatDiv            0      0.00%     70.64% # Type of FU issued
system.switch_cpus1.iq.FU_type_0::SimdFloatMisc            0      0.00%     70.64% # Type of FU issued
system.switch_cpus1.iq.FU_type_0::SimdFloatMult            0      0.00%     70.64% # Type of FU issued
system.switch_cpus1.iq.FU_type_0::SimdFloatMultAcc            0      0.00%     70.64% # Type of FU issued
system.switch_cpus1.iq.FU_type_0::SimdFloatSqrt            0      0.00%     70.64% # Type of FU issued
system.switch_cpus1.iq.FU_type_0::SimdReduceAdd            0      0.00%     70.64% # Type of FU issued
system.switch_cpus1.iq.FU_type_0::SimdReduceAlu            0      0.00%     70.64% # Type of FU issued
system.switch_cpus1.iq.FU_type_0::SimdReduceCmp            0      0.00%     70.64% # Type of FU issued
system.switch_cpus1.iq.FU_type_0::SimdFloatReduceAdd            0      0.00%     70.64% # Type of FU issued
system.switch_cpus1.iq.FU_type_0::SimdFloatReduceCmp            0      0.00%     70.64% # Type of FU issued
[...]
system.switch_cpus3.commit.numCommittedDist::stdev     3.037759                       # Number of insts commited each cycle
system.switch_cpus3.commit.numCommittedDist::underflows            0      0.00%      0.00% # Number of insts commited each cycle
system.switch_cpus3.commit.numCommittedDist::0     85149858     70.61%     70.61% # Number of insts commited each cycle
system.switch_cpus3.commit.numCommittedDist::1      6097682      5.06%     75.67% # Number of insts commited each cycle
system.switch_cpus3.commit.numCommittedDist::2      2179063      1.81%     77.48% # Number of insts commited each cycle
system.switch_cpus3.commit.numCommittedDist::3      2649640      2.20%     79.67% # Number of insts commited each cycle
system.switch_cpus3.commit.numCommittedDist::4      1898409      1.57%     81.25% # Number of insts commited each cycle
system.switch_cpus3.commit.numCommittedDist::5       858464      0.71%     81.96% # Number of insts commited each cycle
system.switch_cpus3.commit.numCommittedDist::6       401466      0.33%     82.29% # Number of insts commited each cycle
system.switch_cpus3.commit.numCommittedDist::7      1316101      1.09%     83.38% # Number of insts commited each cycle
system.switch_cpus3.commit.numCommittedDist::8     20038555     16.62%    100.00% # Number of insts commited each cycle
system.switch_cpus3.commit.numCommittedDist::overflows            0      0.00%    100.00% # Number of insts commited each cycle
system.switch_cpus3.commit.numCommittedDist::min_value            0                       # Number of insts commited each cycle
system.switch_cpus3.commit.numCommittedDist::max_value            8                       # Number of insts commited each cycle
system.switch_cpus3.commit.numCommittedDist::total    120589238                       # Number of insts commited each cycle
system.switch_cpus3.commit.instsCommitted    123222734                       # Number of instructions committed
system.switch_cpus3.commit.opsCommitted     202220627                       # Number of ops (including micro ops) committed
system.switch_cpus3.commit.memRefs           45456067                       # Number of memory references committed
system.switch_cpus3.commit.loads             32086154                       # Number of loads committed
system.switch_cpus3.commit.amos                     0                       # Number of atomic instructions committed
system.switch_cpus3.commit.membars                  0                       # Number of memory barriers committed
system.switch_cpus3.commit.branches          14969008                       # Number of branches committed
system.switch_cpus3.commit.vector                   0                       # Number of committed Vector instructions.
system.switch_cpus3.commit.floating          87148086                       # Number of committed floating point instructions.
system.switch_cpus3.commit.integer          144774192                       # Number of committed integer instructions.
system.switch_cpus3.commit.functionCalls      1114616                       # Number of function calls committed.
system.switch_cpus3.commit.committedInstType_0::No_OpClass         8575      0.00%      0.00% # Class of committed instruction
system.switch_cpus3.commit.committedInstType_0::IntAlu    112876541     55.82%     55.82% # Class of committed instruction
system.switch_cpus3.commit.committedInstType_0::IntMult         3603      0.00%     55.82% # Class of committed instruction
system.switch_cpus3.commit.committedInstType_0::IntDiv            0      0.00%     55.82% # Class of committed instruction
system.switch_cpus3.commit.committedInstType_0::FloatAdd      4178219      2.07%     57.89% # Class of committed instruction
system.switch_cpus3.commit.committedInstType_0::FloatCmp            0      0.00%     57.89% # Class of committed instruction
system.switch_cpus3.commit.committedInstType_0::FloatCvt            0      0.00%     57.89% # Class of committed instruction
system.switch_cpus3.commit.committedInstType_0::FloatMult            0      0.00%     57.89% # Class of committed instruction
system.switch_cpus3.commit.committedInstType_0::FloatMultAcc            0      0.00%     57.89% # Class of committed instruction
system.switch_cpus3.commit.committedInstType_0::FloatDiv            0      0.00%     57.89% # Class of committed instruction
system.switch_cpus3.commit.committedInstType_0::FloatMisc            0      0.00%     57.89% # Class of committed instruction
system.switch_cpus3.commit.committedInstType_0::FloatSqrt            0      0.00%     57.89% # Class of committed instruction
system.switch_cpus3.commit.committedInstType_0::SimdAdd            0      0.00%     57.89% # Class of committed instruction
system.switch_cpus3.commit.committedInstType_0::SimdAddAcc            0      0.00%     57.89% # Class of committed instruction
system.switch_cpus3.commit.committedInstType_0::SimdAlu      4582908      2.27%     60.16% # Class of committed instruction
system.switch_cpus3.commit.committedInstType_0::SimdCmp            0      0.00%     60.16% # Class of committed instruction
system.switch_cpus3.commit.committedInstType_0::SimdCvt            0      0.00%     60.16% # Class of committed instruction
system.switch_cpus3.commit.committedInstType_0::SimdMisc      2508831      1.24%     61.40% # Class of committed instruction
system.switch_cpus3.commit.committedInstType_0::SimdMult            0      0.00%     61.40% # Class of committed instruction
system.switch_cpus3.commit.committedInstType_0::SimdMultAcc            0      0.00%     61.40% # Class of committed instruction
system.switch_cpus3.commit.committedInstType_0::SimdShift            0      0.00%     61.40% # Class of committed instruction
system.switch_cpus3.commit.committedInstType_0::SimdShiftAcc            0      0.00%     61.40% # Class of committed instruction
system.switch_cpus3.commit.committedInstType_0::SimdDiv            0      0.00%     61.40% # Class of committed instruction
system.switch_cpus3.commit.committedInstType_0::SimdSqrt            0      0.00%     61.40% # Class of committed instruction
system.switch_cpus3.commit.committedInstType_0::SimdFloatAdd     13333197      6.59%     67.99% # Class of committed instruction
system.switch_cpus3.commit.committedInstType_0::SimdFloatAlu            0      0.00%     67.99% # Class of committed instruction
system.switch_cpus3.commit.committedInstType_0::SimdFloatCmp       376832      0.19%     68.18% # Class of committed instruction
system.switch_cpus3.commit.committedInstType_0::SimdFloatCvt      3080192      1.52%     69.70% # Class of committed instruction
system.switch_cpus3.commit.committedInstType_0::SimdFloatDiv      2571260      1.27%     70.97% # Class of committed instruction
system.switch_cpus3.commit.committedInstType_0::SimdFloatMisc            0      0.00%     70.97% # Class of committed instruction
system.switch_cpus3.commit.committedInstType_0::SimdFloatMult     12834800      6.35%     77.32% # Class of committed instruction
system.switch_cpus3.commit.committedInstType_0::SimdFloatMultAcc            0      0.00%     77.32% # Class of committed instruction
system.switch_cpus3.commit.committedInstType_0::SimdFloatSqrt       409602      0.20%     77.52% # Class of committed instruction
system.switch_cpus3.commit.committedInstType_0::SimdReduceAdd            0      0.00%     77.52% # Class of committed instruction
system.switch_cpus3.commit.committedInstType_0::SimdReduceAlu            0      0.00%     77.52% # Class of committed instruction
system.switch_cpus3.commit.committedInstType_0::SimdReduceCmp            0      0.00%     77.52% # Class of committed instruction
system.switch_cpus3.commit.committedInstType_0::SimdFloatReduceAdd            0      0.00%     77.52% # Class of committed instruction
system.switch_cpus3.commit.committedInstType_0::SimdFloatReduceCmp            0      0.00%     77.52% # Class of committed instruction
system.switch_cpus3.commit.committedInstType_0::SimdAes            0      0.00%     77.52% # Class of committed instruction
system.switch_cpus3.commit.committedInstType_0::SimdAesMix            0      0.00%     77.52% # Class of committed instruction
system.switch_cpus3.commit.committedInstType_0::SimdSha1Hash            0      0.00%     77.52% # Class of committed instruction
system.switch_cpus3.commit.committedInstType_0::SimdSha1Hash2            0      0.00%     77.52% # Class of committed instruction
system.switch_cpus3.commit.committedInstType_0::SimdSha256Hash            0      0.00%     77.52% # Class of committed instruction
system.switch_cpus3.commit.committedInstType_0::SimdSha256Hash2            0      0.00%     77.52% # Class of committed instruction
system.switch_cpus3.commit.committedInstType_0::SimdShaSigma2            0      0.00%     77.52% # Class of committed instruction
system.switch_cpus3.commit.committedInstType_0::SimdShaSigma3            0      0.00%     77.52% # Class of committed instruction
system.switch_cpus3.commit.committedInstType_0::SimdPredAlu            0      0.00%     77.52% # Class of committed instruction
system.switch_cpus3.commit.committedInstType_0::MemRead     12326994      6.10%     83.62% # Class of committed instruction
system.switch_cpus3.commit.committedInstType_0::MemWrite      5924771      2.93%     86.55% # Class of committed instruction
system.switch_cpus3.commit.committedInstType_0::FloatMemRead     19759160      9.77%     96.32% # Class of committed instruction
system.switch_cpus3.commit.committedInstType_0::FloatMemWrite      7445142      3.68%    100.00% # Class of committed instruction
system.switch_cpus3.commit.committedInstType_0::IprAccess            0      0.00%    100.00% # Class of committed instruction
system.switch_cpus3.commit.committedInstType_0::InstPrefetch            0      0.00%    100.00% # Class of committed instruction
system.switch_cpus3.commit.committedInstType_0::total    202220627                       # Class of committed instruction
system.switch_cpus3.commit.commitEligibleSamples     20038555                       # number cycles where commit BW limit reached
system.switch_cpus3.decode.idleCycles         2075776                       # Number of cycles decode is idle
system.switch_cpus3.decode.blockedCycles     88288167                       # Number of cycles decode is blocked
system.switch_cpus3.decode.runCycles         27711986                       # Number of cycles decode is running
system.switch_cpus3.decode.unblockCycles      2547563                       # Number of cycles decode is unblocking
system.switch_cpus3.decode.squashCycles         11505                       # Number of cycles decode is squashing
system.switch_cpus3.decode.branchResolved      5867561                       # Number of times decode resolved a  branch
system.switch_cpus3.decode.branchMispred          107                       # Number of times decode detected a branch misprediction
system.switch_cpus3.decode.decodedInsts     202702024                       # Number of instructions handled by decode
system.switch_cpus3.decode.squashedInsts          527                       # Number of squashed instructions handled by decode
system.switch_cpus3.dtb.rdAccesses           32141266                       # TLB accesses on read requests
system.switch_cpus3.dtb.wrAccesses           13377721                       # TLB accesses on write requests
system.switch_cpus3.dtb.rdMisses                35997                       # TLB misses on read requests
system.switch_cpus3.dtb.wrMisses                 6817                       # TLB misses on write requests
system.switch_cpus3.dtb.walker.power_state.pwrStateResidencyTicks::UNDEFINED 15691442399118                       # Cumulative time (in ticks) in various power states
system.switch_cpus3.fetch.icacheStallCycles        36807                       # Number of cycles fetch is stalled on an Icache miss
system.switch_cpus3.fetch.insts             123751451                       # Number of instructions fetch has processed
system.switch_cpus3.fetch.branches           15008267                       # Number of branches that fetch encountered
system.switch_cpus3.fetch.predictedBranches      8390142                       # Number of branches that fetch has predicted taken
system.switch_cpus3.fetch.cycles            120586590                       # Number of cycles fetch has run and was not squashing or blocked
system.switch_cpus3.fetch.squashCycles          23220                       # Number of cycles fetch has spent squashing
system.switch_cpus3.fetch.cacheLines         15453767                       # Number of cache lines fetched
system.switch_cpus3.fetch.icacheSquashes          177                       # Number of outstanding Icache misses that were squashed
system.switch_cpus3.fetch.nisnDist::samples    120635007                       # Number of instructions fetched each cycle (Total)
system.switch_cpus3.fetch.nisnDist::mean     1.682381                       # Number of instructions fetched each cycle (Total)
system.switch_cpus3.fetch.nisnDist::stdev     3.046623                       # Number of instructions fetched each cycle (Total)
system.switch_cpus3.fetch.nisnDist::underflows            0      0.00%      0.00% # Number of instructions fetched each cycle (Total)
system.switch_cpus3.fetch.nisnDist::0        87100861     72.20%     72.20% # Number of instructions fetched each cycle (Total)
system.switch_cpus3.fetch.nisnDist::1         3751431      3.11%     75.31% # Number of instructions fetched each cycle (Total)
system.switch_cpus3.fetch.nisnDist::2         1110750      0.92%     76.23% # Number of instructions fetched each cycle (Total)
system.switch_cpus3.fetch.nisnDist::3         3986015      3.30%     79.54% # Number of instructions fetched each cycle (Total)
system.switch_cpus3.fetch.nisnDist::4         1000209      0.83%     80.37% # Number of instructions fetched each cycle (Total)
system.switch_cpus3.fetch.nisnDist::5         1655267      1.37%     81.74% # Number of instructions fetched each cycle (Total)
system.switch_cpus3.fetch.nisnDist::6         1116719      0.93%     82.66% # Number of instructions fetched each cycle (Total)
system.switch_cpus3.fetch.nisnDist::7         1264401      1.05%     83.71% # Number of instructions fetched each cycle (Total)
system.switch_cpus3.fetch.nisnDist::8        19649354     16.29%    100.00% # Number of instructions fetched each cycle (Total)
system.switch_cpus3.fetch.nisnDist::overflows            0      0.00%    100.00% # Number of instructions fetched each cycle (Total)
system.switch_cpus3.fetch.nisnDist::min_value            0                       # Number of instructions fetched each cycle (Total)
system.switch_cpus3.fetch.nisnDist::max_value            8                       # Number of instructions fetched each cycle (Total)
system.switch_cpus3.fetch.nisnDist::total    120635007                       # Number of instructions fetched each cycle (Total)
system.switch_cpus3.fetch.branchRate         0.124368                       # Number of branch fetches per cycle
system.switch_cpus3.fetch.rate               1.025481                       # Number of inst fetches per cycle
system.switch_cpus3.itb.rdAccesses                  0                       # TLB accesses on read requests
system.switch_cpus3.itb.wrAccesses           15453767                       # TLB accesses on write requests
system.switch_cpus3.itb.rdMisses                    0                       # TLB misses on read requests
system.switch_cpus3.itb.wrMisses                   21                       # TLB misses on write requests
system.switch_cpus3.itb.walker.power_state.pwrStateResidencyTicks::UNDEFINED 15691442399118                       # Cumulative time (in ticks) in various power states
system.switch_cpus3.lsq0.forwLoads            2281369                       # Number of loads that had data forwarded from stores
system.switch_cpus3.lsq0.squashedLoads          77673                       # Number of loads squashed
system.switch_cpus3.lsq0.ignoredResponses           33                       # Number of memory responses ignored because the instruction is squashed
system.switch_cpus3.lsq0.memOrderViolation          775                       # Number of memory ordering violations
system.switch_cpus3.lsq0.squashedStores         32100                       # Number of stores squashed
system.switch_cpus3.lsq0.rescheduledLoads            0                       # Number of loads that were rescheduled
system.switch_cpus3.lsq0.blockedByCache             7                       # Number of times an access to memory failed due to the cache being blocked
system.switch_cpus3.power_state.pwrStateResidencyTicks::OFF  40185280494                       # Cumulative time (in ticks) in various power states
system.switch_cpus3.rename.squashCycles         11505                       # Number of cycles rename is squashing
system.switch_cpus3.rename.idleCycles         3188423                       # Number of cycles rename is idle
system.switch_cpus3.rename.blockCycles       37866714                       # Number of cycles rename is blocking
system.switch_cpus3.rename.serializeStallCycles            0                       # count of cycles rename stalledfor serializing inst
system.switch_cpus3.rename.runCycles         29093157                       # Number of cycles rename is running
system.switch_cpus3.rename.unblockCycles     50475198                       # Number of cycles rename is unblocking
system.switch_cpus3.rename.renamedInsts     202620949                       # Number of instructions processed by rename
system.switch_cpus3.rename.ROBFullEvents      1264217                       # Number of times rename has blocked due to ROB full
system.switch_cpus3.rename.IQFullEvents       3032498                       # Number of times rename has blocked due to IQ full
system.switch_cpus3.rename.LQFullEvents      19853874                       # Number of times rename has blocked due to LQ full
system.switch_cpus3.rename.SQFullEvents      27931250                       # Number of times rename has blocked due to SQ full
system.switch_cpus3.rename.renamedOperands    222934103                       # Number of destination operands rename has renamed
system.switch_cpus3.rename.lookups          493964160                       # Number of register rename lookups that rename has made
system.switch_cpus3.rename.intLookups       199264373                       # Number of integer rename lookups
system.switch_cpus3.rename.fpLookups        145853470                       # Number of floating rename lookups
system.switch_cpus3.rename.committedMaps    222485974                       # Number of HB maps that are committed
system.switch_cpus3.rename.undoneMaps          448129                       # Number of HB maps that are undone due to squashing
system.switch_cpus3.rename.serializing              0                       # count of serializing insts renamed
system.switch_cpus3.rename.tempSerializing            0                       # count of temporary serializing insts renamed
system.switch_cpus3.rename.skidInsts         13660248                       # count of insts added to the skid buffer
system.switch_cpus3.rob.reads               303088518                       # The number of ROB reads
system.switch_cpus3.rob.writes              405121526                       # The number of ROB writes
system.switch_cpus3.thread0.numInsts        123222734                       # Number of Instructions committed
system.switch_cpus3.thread0.numOps          202220627                       # Number of Ops committed
system.switch_cpus3.thread0.numMemRefs              0                       # Number of Memory References
system.voltage_domain.voltage                       1                       # Voltage in Volts

---------- End Simulation Statistics   ----------
