
---------- Begin Simulation Statistics ----------
final_tick                               15691438526661                       # Number of ticks from beginning of simulation (restored from checkpoints and never reset)
host_inst_rate                                 146695                       # Simulator instruction rate (inst/s)
host_mem_usage                               17332148                       # Number of bytes of host memory used
host_op_rate                                   272282                       # Simulator op (including micro ops) rate (op/s)
host_seconds                                  4897.54                       # Real time elapsed on the host
host_tick_rate                                8204422                       # Simulator tick rate (ticks/s)
sim_freq                                 1000000000000                       # Frequency of simulated ticks
sim_insts                                   718443244                       # Number of instructions simulated
sim_ops                                    1333510329                       # Number of ops (including micro ops) simulated
sim_seconds                                  0.040181                       # Number of seconds simulated
sim_ticks                                 40181449329                       # Number of ticks simulated
system.cpu0.Branches                                2                       # Number of branches fetched
system.cpu0.committedInsts                         14                       # Number of instructions committed
system.cpu0.committedOps                           24                       # Number of ops (including micro ops) committed
system.cpu0.idle_fraction                           0                       # Percentage of idle cycles
system.cpu0.l2bus.snoop_filter.hit_multi_requests           75                       # Number of requests hitting in the snoop filter with multiple (>1) holders of the requested data.
system.cpu0.l2bus.snoop_filter.hit_multi_snoops            0                       # Number of snoops hitting in the snoop filter with multiple (>1) holders of the requested data.
system.cpu0.l2bus.snoop_filter.hit_single_requests       484890                       # Number of requests hitting in the snoop filter with a single holder of the requested data.
system.cpu0.l2bus.snoop_filter.hit_single_snoops          477                       # Number of snoops hitting in the snoop filter with a single holder of the requested data.
system.cpu0.l2bus.snoop_filter.tot_requests       970646                       # Total number of requests made to the snoop filter.
system.cpu0.l2bus.snoop_filter.tot_snoops          477                       # Total number of snoops made to the snoop filter.
system.cpu0.mmucache.mmubus.snoop_filter.hit_multi_requests            0                       # Number of requests hitting in the snoop filter with multiple (>1) holders of the requested data.
system.cpu0.mmucache.mmubus.snoop_filter.hit_multi_snoops            0                       # Number of snoops hitting in the snoop filter with multiple (>1) holders of the requested data.
system.cpu0.mmucache.mmubus.snoop_filter.hit_single_requests            0                       # Number of requests hitting in the snoop filter with a single holder of the requested data.
system.cpu0.mmucache.mmubus.snoop_filter.hit_single_snoops            0                       # Number of snoops hitting in the snoop filter with a single holder of the requested data.
system.cpu0.mmucache.mmubus.snoop_filter.tot_requests            0                       # Total number of requests made to the snoop filter.
system.cpu0.mmucache.mmubus.snoop_filter.tot_snoops            0                       # Total number of snoops made to the snoop filter.
system.cpu0.not_idle_fraction                       1                       # Percentage of non-idle cycles
system.cpu0.numCycles                              30                       # number of cpu cycles simulated
system.cpu0.numWorkItemsCompleted                   0                       # number of work items this cpu completed
system.cpu0.numWorkItemsStarted                     0                       # number of work items this cpu started
system.cpu0.num_busy_cycles                        30                       # Number of busy cycles
system.cpu0.num_cc_register_reads                   9                       # number of times the CC registers were read
system.cpu0.num_cc_register_writes                 11                       # number of times the CC registers were written
system.cpu0.num_conditional_control_insts            1                       # number of instructions that are conditional controls
system.cpu0.num_fp_alu_accesses                     0                       # Number of float alu accesses
system.cpu0.num_fp_insts                            0                       # number of float instructions
system.cpu0.num_fp_register_reads                   0                       # number of times the floating registers were read
system.cpu0.num_fp_register_writes                  0                       # number of times the floating registers were written
system.cpu0.num_func_calls                          1                       # number of times a function call or return occured
system.cpu0.num_idle_cycles                         0                       # Number of idle cycles
system.cpu0.num_int_alu_accesses                   24                       # Number of integer alu accesses
system.cpu0.num_int_insts                          24                       # number of integer instructions
system.cpu0.num_int_register_reads                 49                       # number of times the integer registers were read
system.cpu0.num_int_register_writes                23                       # number of times the integer registers were written
system.cpu0.num_load_insts                          6                       # Number of load instructions
system.cpu0.num_mem_refs                            6                       # number of memory refs
system.cpu0.num_store_insts                         0                       # Number of store instructions
system.cpu0.num_vec_alu_accesses                    0                       # Number of vector alu accesses
system.cpu0.num_vec_insts                           0                       # number of vector instructions
system.cpu0.num_vec_register_reads                  0                       # number of times the vector registers were read
system.cpu0.num_vec_register_writes                 0                       # number of times the vector registers were written
system.cpu0.op_class::No_OpClass                    0      0.00%      0.00% # Class of executed instruction
system.cpu0.op_class::IntAlu                       17     70.83%     70.83% # Class of executed instruction
system.cpu0.op_class::IntMult                       1      4.17%     75.00% # Class of executed instruction
system.cpu0.op_class::IntDiv                        0      0.00%     75.00% # Class of executed instruction
system.cpu0.op_class::FloatAdd                      0      0.00%     75.00% # Class of executed instruction
system.cpu0.op_class::FloatCmp                      0      0.00%     75.00% # Class of executed instruction
system.cpu0.op_class::FloatCvt                      0      0.00%     75.00% # Class of executed instruction
system.cpu0.op_class::FloatMult                     0      0.00%     75.00% # Class of executed instruction
system.cpu0.op_class::FloatMultAcc                  0      0.00%     75.00% # Class of executed instruction
system.cpu0.op_class::FloatDiv                      0      0.00%     75.00% # Class of executed instruction
system.cpu0.op_class::FloatMisc                     0      0.00%     75.00% # Class of executed instruction
system.cpu0.op_class::FloatSqrt                     0      0.00%     75.00% # Class of executed instruction
system.cpu0.op_class::SimdAdd                       0      0.00%     75.00% # Class of executed instruction
system.cpu0.op_class::SimdAddAcc                    0      0.00%     75.00% # Class of executed instruction
system.cpu0.op_class::SimdAlu                       0      0.00%     75.00% # Class of executed instruction
system.cpu0.op_class::SimdCmp                       0      0.00%     75.00% # Class of executed instruction
system.cpu0.op_class::SimdCvt                       0      0.00%     75.00% # Class of executed instruction
system.cpu0.op_class::SimdMisc                      0      0.00%     75.00% # Class of executed instruction
system.cpu0.op_class::SimdMult                      0      0.00%     75.00% # Class of executed instruction
system.cpu0.op_class::SimdMultAcc                   0      0.00%     75.00% # Class of executed instruction
system.cpu0.op_class::SimdShift                     0      0.00%     75.00% # Class of executed instruction
system.cpu0.op_class::SimdShiftAcc                  0      0.00%     75.00% # Class of executed instruction
system.cpu0.op_class::SimdDiv                       0      0.00%     75.00% # Class of executed instruction
system.cpu0.op_class::SimdSqrt                      0      0.00%     75.00% # Class of executed instruction
system.cpu0.op_class::SimdFloatAdd                  0      0.00%     75.00% # Class of executed instruction
system.cpu0.op_class::SimdFloatAlu                  0      0.00%     75.00% # Class of executed instruction
system.cpu0.op_class::SimdFloatCmp                  0      0.00%     75.00% # Class of executed instruction
system.cpu0.op_class::SimdFloatCvt                  0      0.00%     75.00% # Class of executed instruction
system.cpu0.op_class::SimdFloatDiv                  0      0.00%     75.00% # Class of executed instruction
system.cpu0.op_class::SimdFloatMisc                 0      0.00%     75.00% # Class of executed instruction
system.cpu0.op_class::SimdFloatMult                 0      0.00%     75.00% # Class of executed instruction
system.cpu0.op_class::SimdFloatMultAcc              0      0.00%     75.00% # Class of executed instruction
system.cpu0.op_class::SimdFloatSqrt                 0      0.00%     75.00% # Class of executed instruction
system.cpu0.op_class::SimdReduceAdd                 0      0.00%     75.00% # Class of executed instruction
system.cpu0.op_class::SimdReduceAlu                 0      0.00%     75.00% # Class of executed instruction
system.cpu0.op_class::SimdReduceCmp                 0      0.00%     75.00% # Class of executed instruction
system.cpu0.op_class::SimdFloatReduceAdd            0      0.00%     75.00% # Class of executed instruction
system.cpu0.op_class::SimdFloatReduceCmp            0      0.00%     75.00% # Class of executed instruction
system.cpu0.op_class::SimdAes                       0      0.00%     75.00% # Class of executed instruction
system.cpu0.op_class::SimdAesMix                    0      0.00%     75.00% # Class of executed instruction
system.cpu0.op_class::SimdSha1Hash                  0      0.00%     75.00% # Class of executed instruction
system.cpu0.op_class::SimdSha1Hash2                 0      0.00%     75.00% # Class of executed instruction
system.cpu0.op_class::SimdSha256Hash                0      0.00%     75.00% # Class of executed instruction
system.cpu0.op_class::SimdSha256Hash2               0      0.00%     75.00% # Class of executed instruction
system.cpu0.op_class::SimdShaSigma2                 0      0.00%     75.00% # Class of executed instruction
system.cpu0.op_class::SimdShaSigma3                 0      0.00%     75.00% # Class of executed instruction
system.cpu0.op_class::SimdPredAlu                   0      0.00%     75.00% # Class of executed instruction
system.cpu0.op_class::MemRead                       6     25.00%    100.00% # Class of executed instruction
system.cpu0.op_class::MemWrite                      0      0.00%    100.00% # Class of executed instruction
system.cpu0.op_class::FloatMemRead                  0      0.00%    100.00% # Class of executed instruction
system.cpu0.op_class::FloatMemWrite                 0      0.00%    100.00% # Class of executed instruction
system.cpu0.op_class::IprAccess                     0      0.00%    100.00% # Class of executed instruction
system.cpu0.op_class::InstPrefetch                  0      0.00%    100.00% # Class of executed instruction
system.cpu0.op_class::total                        24                       # Class of executed instruction
system.cpu0.workload.numSyscalls                    0                       # Number of system calls
system.cpu1.Branches                                3                       # Number of branches fetched
system.cpu1.committedInsts                         12                       # Number of instructions committed
system.cpu1.committedOps                           27                       # Number of ops (including micro ops) committed
system.cpu1.idle_fraction                           0                       # Percentage of idle cycles
system.cpu1.l2bus.snoop_filter.hit_multi_requests            3                       # Number of requests hitting in the snoop filter with multiple (>1) holders of the requested data.
system.cpu1.l2bus.snoop_filter.hit_multi_snoops            0                       # Number of snoops hitting in the snoop filter with multiple (>1) holders of the requested data.
system.cpu1.l2bus.snoop_filter.hit_single_requests         6238                       # Number of requests hitting in the snoop filter with a single holder of the requested data.
system.cpu1.l2bus.snoop_filter.hit_single_snoops            0                       # Number of snoops hitting in the snoop filter with a single holder of the requested data.
system.cpu1.l2bus.snoop_filter.tot_requests        13288                       # Total number of requests made to the snoop filter.
system.cpu1.l2bus.snoop_filter.tot_snoops            0                       # Total number of snoops made to the snoop filter.
system.cpu1.mmucache.mmubus.snoop_filter.hit_multi_requests            0                       # Number of requests hitting in the snoop filter with multiple (>1) holders of the requested data.
system.cpu1.mmucache.mmubus.snoop_filter.hit_multi_snoops            0                       # Number of snoops hitting in the snoop filter with multiple (>1) holders of the requested data.
system.cpu1.mmucache.mmubus.snoop_filter.hit_single_requests            0                       # Number of requests hitting in the snoop filter with a single holder of the requested data.
system.cpu1.mmucache.mmubus.snoop_filter.hit_single_snoops            0                       # Number of snoops hitting in the snoop filter with a single holder of the requested data.
system.cpu1.mmucache.mmubus.snoop_filter.tot_requests            0                       # Total number of requests made to the snoop filter.
system.cpu1.mmucache.mmubus.snoop_filter.tot_snoops            0                       # Total number of snoops made to the snoop filter.
system.cpu1.not_idle_fraction                       1                       # Percentage of non-idle cycles
system.cpu1.numCycles                              30                       # number of cpu cycles simulated
system.cpu1.numWorkItemsCompleted                   0                       # number of work items this cpu completed
system.cpu1.numWorkItemsStarted                     0                       # number of work items this cpu started
system.cpu1.num_busy_cycles                        30                       # Number of busy cycles
system.cpu1.num_cc_register_reads                  11                       # number of times the CC registers were read
system.cpu1.num_cc_register_writes                 10                       # number of times the CC registers were written
system.cpu1.num_conditional_control_insts            2                       # number of instructions that are conditional controls
system.cpu1.num_fp_alu_accesses                     0                       # Number of float alu accesses
system.cpu1.num_fp_insts                            0                       # number of float instructions
system.cpu1.num_fp_register_reads                   0                       # number of times the floating registers were read
system.cpu1.num_fp_register_writes                  0                       # number of times the floating registers were written
system.cpu1.num_func_calls                          0                       # number of times a function call or return occured
system.cpu1.num_idle_cycles                         0                       # Number of idle cycles
system.cpu1.num_int_alu_accesses                   26                       # Number of integer alu accesses
system.cpu1.num_int_insts                          26                       # number of integer instructions
system.cpu1.num_int_register_reads                 44                       # number of times the integer registers were read
system.cpu1.num_int_register_writes                22                       # number of times the integer registers were written
system.cpu1.num_load_insts                          3                       # Number of load instructions
system.cpu1.num_mem_refs                            4                       # number of memory refs
system.cpu1.num_store_insts                         1                       # Number of store instructions
system.cpu1.num_vec_alu_accesses                    0                       # Number of vector alu accesses
system.cpu1.num_vec_insts                           0                       # number of vector instructions
system.cpu1.num_vec_register_reads                  0                       # number of times the vector registers were read
system.cpu1.num_vec_register_writes                 0                       # number of times the vector registers were written
system.cpu1.op_class::No_OpClass                    0      0.00%      0.00% # Class of executed instruction
system.cpu1.op_class::IntAlu                       23     85.19%     85.19% # Class of executed instruction
system.cpu1.op_class::IntMult                       0      0.00%     85.19% # Class of executed instruction
system.cpu1.op_class::IntDiv                        0      0.00%     85.19% # Class of executed instruction
system.cpu1.op_class::FloatAdd                      0      0.00%     85.19% # Class of executed instruction
system.cpu1.op_class::FloatCmp                      0      0.00%     85.19% # Class of executed instruction
system.cpu1.op_class::FloatCvt                      0      0.00%     85.19% # Class of executed instruction
system.cpu1.op_class::FloatMult                     0      0.00%     85.19% # Class of executed instruction
system.cpu1.op_class::FloatMultAcc                  0      0.00%     85.19% # Class of executed instruction
system.cpu1.op_class::FloatDiv                      0      0.00%     85.19% # Class of executed instruction
system.cpu1.op_class::FloatMisc                     0      0.00%     85.19% # Class of executed instruction
system.cpu1.op_class::FloatSqrt                     0      0.00%     85.19% # Class of executed instruction
system.cpu1.op_class::SimdAdd                       0      0.00%     85.19% # Class of executed instruction
system.cpu1.op_class::SimdAddAcc                    0      0.00%     85.19% # Class of executed instruction
system.cpu1.op_class::SimdAlu                       0      0.00%     85.19% # Class of executed instruction
system.cpu1.op_class::SimdCmp                       0      0.00%     85.19% # Class of executed instruction
system.cpu1.op_class::SimdCvt                       0      0.00%     85.19% # Class of executed instruction
system.cpu1.op_class::SimdMisc                      0      0.00%     85.19% # Class of executed instruction
system.cpu1.op_class::SimdMult                      0      0.00%     85.19% # Class of executed instruction
system.cpu1.op_class::SimdMultAcc                   0      0.00%     85.19% # Class of executed instruction
system.cpu1.op_class::SimdShift                     0      0.00%     85.19% # Class of executed instruction
system.cpu1.op_class::SimdShiftAcc                  0      0.00%     85.19% # Class of executed instruction
system.cpu1.op_class::SimdDiv                       0      0.00%     85.19% # Class of executed instruction
system.cpu1.op_class::SimdSqrt                      0      0.00%     85.19% # Class of executed instruction
system.cpu1.op_class::SimdFloatAdd                  0      0.00%     85.19% # Class of executed instruction
system.cpu1.op_class::SimdFloatAlu                  0      0.00%     85.19% # Class of executed instruction
system.cpu1.op_class::SimdFloatCmp                  0      0.00%     85.19% # Class of executed instruction
system.cpu1.op_class::SimdFloatCvt                  0      0.00%     85.19% # Class of executed instruction
system.cpu1.op_class::SimdFloatDiv                  0      0.00%     85.19% # Class of executed instruction
system.cpu1.op_class::SimdFloatMisc                 0      0.00%     85.19% # Class of executed instruction
system.cpu1.op_class::SimdFloatMult                 0      0.00%     85.19% # Class of executed instruction
system.cpu1.op_class::SimdFloatMultAcc              0      0.00%     85.19% # Class of executed instruction
system.cpu1.op_class::SimdFloatSqrt                 0      0.00%     85.19% # Class of executed instruction
system.cpu1.op_class::SimdReduceAdd                 0      0.00%     85.19% # Class of executed instruction
system.cpu1.op_class::SimdReduceAlu                 0      0.00%     85.19% # Class of executed instruction
system.cpu1.op_class::SimdReduceCmp                 0      0.00%     85.19% # Class of executed instruction
system.cpu1.op_class::SimdFloatReduceAdd            0      0.00%     85.19% # Class of executed instruction
system.cpu1.op_class::SimdFloatReduceCmp            0      0.00%     85.19% # Class of executed instruction
system.cpu1.op_class::SimdAes                       0      0.00%     85.19% # Class of executed instruction
system.cpu1.op_class::SimdAesMix                    0      0.00%     85.19% # Class of executed instruction
system.cpu1.op_class::SimdSha1Hash                  0      0.00%     85.19% # Class of executed instruction
system.cpu1.op_class::SimdSha1Hash2                 0      0.00%     85.19% # Class of executed instruction
system.cpu1.op_class::SimdSha256Hash                0      0.00%     85.19% # Class of executed instruction
system.cpu1.op_class::SimdSha256Hash2               0      0.00%     85.19% # Class of executed instruction
system.cpu1.op_class::SimdShaSigma2                 0      0.00%     85.19% # Class of executed instruction
system.cpu1.op_class::SimdShaSigma3                 0      0.00%     85.19% # Class of executed instruction
system.cpu1.op_class::SimdPredAlu                   0      0.00%     85.19% # Class of executed instruction
system.cpu1.op_class::MemRead                       3     11.11%     96.30% # Class of executed instruction
system.cpu1.op_class::MemWrite                      1      3.70%    100.00% # Class of executed instruction
system.cpu1.op_class::FloatMemRead                  0      0.00%    100.00% # Class of executed instruction
system.cpu1.op_class::FloatMemWrite                 0      0.00%    100.00% # Class of executed instruction
system.cpu1.op_class::IprAccess                     0      0.00%    100.00% # Class of executed instruction
system.cpu1.op_class::InstPrefetch                  0      0.00%    100.00% # Class of executed instruction
system.cpu1.op_class::total                        27                       # Class of executed instruction
system.cpu1.workload.numSyscalls                    0                       # Number of system calls
system.cpu2.Branches                                2                       # Number of branches fetched
system.cpu2.committedInsts                         16                       # Number of instructions committed
system.cpu2.committedOps                           28                       # Number of ops (including micro ops) committed
system.cpu2.idle_fraction                           0                       # Percentage of idle cycles
system.cpu2.l2bus.snoop_filter.hit_multi_requests            2                       # Number of requests hitting in the snoop filter with multiple (>1) holders of the requested data.
system.cpu2.l2bus.snoop_filter.hit_multi_snoops            0                       # Number of snoops hitting in the snoop filter with multiple (>1) holders of the requested data.
system.cpu2.l2bus.snoop_filter.hit_single_requests        40837                       # Number of requests hitting in the snoop filter with a single holder of the requested data.
system.cpu2.l2bus.snoop_filter.hit_single_snoops          555                       # Number of snoops hitting in the snoop filter with a single holder of the requested data.
system.cpu2.l2bus.snoop_filter.tot_requests        82461                       # Total number of requests made to the snoop filter.
system.cpu2.l2bus.snoop_filter.tot_snoops          555                       # Total number of snoops made to the snoop filter.
system.cpu2.mmucache.mmubus.snoop_filter.hit_multi_requests            0                       # Number of requests hitting in the snoop filter with multiple (>1) holders of the requested data.
system.cpu2.mmucache.mmubus.snoop_filter.hit_multi_snoops            0                       # Number of snoops hitting in the snoop filter with multiple (>1) holders of the requested data.
system.cpu2.mmucache.mmubus.snoop_filter.hit_single_requests            0                       # Number of requests hitting in the snoop filter with a single holder of the requested data.
system.cpu2.mmucache.mmubus.snoop_filter.hit_single_snoops            0                       # Number of snoops hitting in the snoop filter with a single holder of the requested data.
system.cpu2.mmucache.mmubus.snoop_filter.tot_requests            0                       # Total number of requests made to the snoop filter.
system.cpu2.mmucache.mmubus.snoop_filter.tot_snoops            0                       # Total number of snoops made to the snoop filter.
system.cpu2.not_idle_fraction                       1                       # Percentage of non-idle cycles
system.cpu2.numCycles                              31                       # number of cpu cycles simulated
system.cpu2.numWorkItemsCompleted                   0                       # number of work items this cpu completed
system.cpu2.numWorkItemsStarted                     0                       # number of work items this cpu started
system.cpu2.num_busy_cycles                        31                       # Number of busy cycles
system.cpu2.num_cc_register_reads                  10                       # number of times the CC registers were read
system.cpu2.num_cc_register_writes                 18                       # number of times the CC registers were written
system.cpu2.num_conditional_control_insts            2                       # number of instructions that are conditional controls
system.cpu2.num_fp_alu_accesses                     0                       # Number of float alu accesses
system.cpu2.num_fp_insts                            0                       # number of float instructions
system.cpu2.num_fp_register_reads                   0                       # number of times the floating registers were read
system.cpu2.num_fp_register_writes                  0                       # number of times the floating registers were written
system.cpu2.num_func_calls                          0                       # number of times a function call or return occured
system.cpu2.num_idle_cycles                         0                       # Number of idle cycles
system.cpu2.num_int_alu_accesses                   28                       # Number of integer alu accesses
system.cpu2.num_int_insts                          28                       # number of integer instructions
system.cpu2.num_int_register_reads                 54                       # number of times the integer registers were read
system.cpu2.num_int_register_writes                28                       # number of times the integer registers were written
system.cpu2.num_load_insts                          6                       # Number of load instructions
system.cpu2.num_mem_refs                            6                       # number of memory refs
system.cpu2.num_store_insts                         0                       # Number of store instructions
system.cpu2.num_vec_alu_accesses                    0                       # Number of vector alu accesses
system.cpu2.num_vec_insts                           0                       # number of vector instructions
system.cpu2.num_vec_register_reads                  0                       # number of times the vector registers were read
system.cpu2.num_vec_register_writes                 0                       # number of times the vector registers were written
system.cpu2.op_class::No_OpClass                    0      0.00%      0.00% # Class of executed instruction
system.cpu2.op_class::IntAlu                       20     71.43%     71.43% # Class of executed instruction
system.cpu2.op_class::IntMult                       2      7.14%     78.57% # Class of executed instruction
system.cpu2.op_class::IntDiv                        0      0.00%     78.57% # Class of executed instruction
system.cpu2.op_class::FloatAdd                      0      0.00%     78.57% # Class of executed instruction
system.cpu2.op_class::FloatCmp                      0      0.00%     78.57% # Class of executed instruction
system.cpu2.op_class::FloatCvt                      0      0.00%     78.57% # Class of executed instruction
system.cpu2.op_class::FloatMult                     0      0.00%     78.57% # Class of executed instruction
system.cpu2.op_class::FloatMultAcc                  0      0.00%     78.57% # Class of executed instruction
system.cpu2.op_class::FloatDiv                      0      0.00%     78.57% # Class of executed instruction
system.cpu2.op_class::FloatMisc                     0      0.00%     78.57% # Class of executed instruction
system.cpu2.op_class::FloatSqrt                     0      0.00%     78.57% # Class of executed instruction
system.cpu2.op_class::SimdAdd                       0      0.00%     78.57% # Class of executed instruction
system.cpu2.op_class::SimdAddAcc                    0      0.00%     78.57% # Class of executed instruction
system.cpu2.op_class::SimdAlu                       0      0.00%     78.57% # Class of executed instruction
system.cpu2.op_class::SimdCmp                       0      0.00%     78.57% # Class of executed instruction
system.cpu2.op_class::SimdCvt                       0      0.00%     78.57% # Class of executed instruction
system.cpu2.op_class::SimdMisc                      0      0.00%     78.57% # Class of executed instruction
system.cpu2.op_class::SimdMult                      0      0.00%     78.57% # Class of executed instruction
system.cpu2.op_class::SimdMultAcc                   0      0.00%     78.57% # Class of executed instruction
system.cpu2.op_class::SimdShift                     0      0.00%     78.57% # Class of executed instruction
system.cpu2.op_class::SimdShiftAcc                  0      0.00%     78.57% # Class of executed instruction
system.cpu2.op_class::SimdDiv                       0      0.00%     78.57% # Class of executed instruction
system.cpu2.op_class::SimdSqrt                      0      0.00%     78.57% # Class of executed instruction
system.cpu2.op_class::SimdFloatAdd                  0      0.00%     78.57% # Class of executed instruction
system.cpu2.op_class::SimdFloatAlu                  0      0.00%     78.57% # Class of executed instruction
system.cpu2.op_class::SimdFloatCmp                  0      0.00%     78.57% # Class of executed instruction
system.cpu2.op_class::SimdFloatCvt                  0      0.00%     78.57% # Class of executed instruction
system.cpu2.op_class::SimdFloatDiv                  0      0.00%     78.57% # Class of executed instruction
system.cpu2.op_class::SimdFloatMisc                 0      0.00%     78.57% # Class of executed instruction
system.cpu2.op_class::SimdFloatMult                 0      0.00%     78.57% # Class of executed instruction
system.cpu2.op_class::SimdFloatMultAcc              0      0.00%     78.57% # Class of executed instruction
system.cpu2.op_class::SimdFloatSqrt                 0      0.00%     78.57% # Class of executed instruction
system.cpu2.op_class::SimdReduceAdd                 0      0.00%     78.57% # Class of executed instruction
system.cpu2.op_class::SimdReduceAlu                 0      0.00%     78.57% # Class of executed instruction
system.cpu2.op_class::SimdReduceCmp                 0      0.00%     78.57% # Class of executed instruction
system.cpu2.op_class::SimdFloatReduceAdd            0      0.00%     78.57% # Class of executed instruction
system.cpu2.op_class::SimdFloatReduceCmp            0      0.00%     78.57% # Class of executed instruction
system.cpu2.op_class::SimdAes                       0      0.00%     78.57% # Class of executed instruction
system.cpu2.op_class::SimdAesMix                    0      0.00%     78.57% # Class of executed instruction
system.cpu2.op_class::SimdSha1Hash                  0      0.00%     78.57% # Class of executed instruction
system.cpu2.op_class::SimdSha1Hash2                 0      0.00%     78.57% # Class of executed instruction
system.cpu2.op_class::SimdSha256Hash                0      0.00%     78.57% # Class of executed instruction
system.cpu2.op_class::SimdSha256Hash2               0      0.00%     78.57% # Class of executed instruction
system.cpu2.op_class::SimdShaSigma2                 0      0.00%     78.57% # Class of executed instruction
system.cpu2.op_class::SimdShaSigma3                 0      0.00%     78.57% # Class of executed instruction
system.cpu2.op_class::SimdPredAlu                   0      0.00%     78.57% # Class of executed instruction
system.cpu2.op_class::MemRead                       6     21.43%    100.00% # Class of executed instruction
system.cpu2.op_class::MemWrite                      0      0.00%    100.00% # Class of executed instruction
system.cpu2.op_class::FloatMemRead                  0      0.00%    100.00% # Class of executed instruction
system.cpu2.op_class::FloatMemWrite                 0      0.00%    100.00% # Class of executed instruction
system.cpu2.op_class::IprAccess                     0      0.00%    100.00% # Class of executed instruction
system.cpu2.op_class::InstPrefetch                  0      0.00%    100.00% # Class of executed instruction
system.cpu2.op_class::total                        28                       # Class of executed instruction
system.cpu2.workload.numSyscalls                    0                       # Number of system calls
system.cpu3.Branches                                1                       # Number of branches fetched
system.cpu3.committedInsts                         14                       # Number of instructions committed
system.cpu3.committedOps                           23                       # Number of ops (including micro ops) committed
system.cpu3.idle_fraction                           0                       # Percentage of idle cycles
system.cpu3.l2bus.snoop_filter.hit_multi_requests            3                       # Number of requests hitting in the snoop filter with multiple (>1) holders of the requested data.
system.cpu3.l2bus.snoop_filter.hit_multi_snoops            0                       # Number of snoops hitting in the snoop filter with multiple (>1) holders of the requested data.
system.cpu3.l2bus.snoop_filter.hit_single_requests      1664751                       # Number of requests hitting in the snoop filter with a single holder of the requested data.
system.cpu3.l2bus.snoop_filter.hit_single_snoops         2919                       # Number of snoops hitting in the snoop filter with a single holder of the requested data.
system.cpu3.l2bus.snoop_filter.tot_requests      3248265                       # Total number of requests made to the snoop filter.
system.cpu3.l2bus.snoop_filter.tot_snoops         2919                       # Total number of snoops made to the snoop filter.
system.cpu3.mmucache.mmubus.snoop_filter.hit_multi_requests            0                       # Number of requests hitting in the snoop filter with multiple (>1) holders of the requested data.
system.cpu3.mmucache.mmubus.snoop_filter.hit_multi_snoops            0                       # Number of snoops hitting in the snoop filter with multiple (>1) holders of the requested data.
system.cpu3.mmucache.mmubus.snoop_filter.hit_single_requests            0                       # Number of requests hitting in the snoop filter with a single holder of the requested data.
system.cpu3.mmucache.mmubus.snoop_filter.hit_single_snoops            0                       # Number of snoops hitting in the snoop filter with a single holder of the requested data.
system.cpu3.mmucache.mmubus.snoop_filter.tot_requests            0                       # Total number of requests made to the snoop filter.
system.cpu3.mmucache.mmubus.snoop_filter.tot_snoops            0                       # Total number of snoops made to the snoop filter.
system.cpu3.not_idle_fraction                       1                       # Percentage of non-idle cycles
system.cpu3.numCycles                              30                       # number of cpu cycles simulated
system.cpu3.numWorkItemsCompleted                   0                       # number of work items this cpu completed
system.cpu3.numWorkItemsStarted                     0                       # number of work items this cpu started
system.cpu3.num_busy_cycles                        30                       # Number of busy cycles
system.cpu3.num_cc_register_reads                   5                       # number of times the CC registers were read
system.cpu3.num_cc_register_writes                  8                       # number of times the CC registers were written
system.cpu3.num_conditional_control_insts            1                       # number of instructions that are conditional controls
system.cpu3.num_fp_alu_accesses                    12                       # Number of float alu accesses
system.cpu3.num_fp_insts                           12                       # number of float instructions
system.cpu3.num_fp_register_reads                  21                       # number of times the floating registers were read
system.cpu3.num_fp_register_writes                 11                       # number of times the floating registers were written
system.cpu3.num_func_calls                          0                       # number of times a function call or return occured
system.cpu3.num_idle_cycles                         0                       # Number of idle cycles
system.cpu3.num_int_alu_accesses                   16                       # Number of integer alu accesses
system.cpu3.num_int_insts                          16                       # number of integer instructions
system.cpu3.num_int_register_reads                 33                       # number of times the integer registers were read
system.cpu3.num_int_register_writes                10                       # number of times the integer registers were written
system.cpu3.num_load_insts                          6                       # Number of load instructions
system.cpu3.num_mem_refs                            7                       # number of memory refs
system.cpu3.num_store_insts                         1                       # Number of store instructions
system.cpu3.num_vec_alu_accesses                    0                       # Number of vector alu accesses
system.cpu3.num_vec_insts                           0                       # number of vector instructions
system.cpu3.num_vec_register_reads                  0                       # number of times the vector registers were read
system.cpu3.num_vec_register_writes                 0                       # number of times the vector registers were written
system.cpu3.op_class::No_OpClass                    0      0.00%      0.00% # Class of executed instruction
system.cpu3.op_class::IntAlu                       10     43.48%     43.48% # Class of executed instruction
system.cpu3.op_class::IntMult                       0      0.00%     43.48% # Class of executed instruction
system.cpu3.op_class::IntDiv                        0      0.00%     43.48% # Class of executed instruction
system.cpu3.op_class::FloatAdd                      0      0.00%     43.48% # Class of executed instruction
system.cpu3.op_class::FloatCmp                      0      0.00%     43.48% # Class of executed instruction
system.cpu3.op_class::FloatCvt                      0      0.00%     43.48% # Class of executed instruction
system.cpu3.op_class::FloatMult                     0      0.00%     43.48% # Class of executed instruction
system.cpu3.op_class::FloatMultAcc                  0      0.00%     43.48% # Class of executed instruction
system.cpu3.op_class::FloatDiv                      0      0.00%     43.48% # Class of executed instruction
system.cpu3.op_class::FloatMisc                     0      0.00%     43.48% # Class of executed instruction
system.cpu3.op_class::FloatSqrt                     0      0.00%     43.48% # Class of executed instruction
system.cpu3.op_class::SimdAdd                       0      0.00%     43.48% # Class of executed instruction
system.cpu3.op_class::SimdAddAcc                    0      0.00%     43.48% # Class of executed instruction
system.cpu3.op_class::SimdAlu                       0      0.00%     43.48% # Class of executed instruction
system.cpu3.op_class::SimdCmp                       0      0.00%     43.48% # Class of executed instruction
system.cpu3.op_class::SimdCvt                       0      0.00%     43.48% # Class of executed instruction
system.cpu3.op_class::SimdMisc                      0      0.00%     43.48% # Class of executed instruction
system.cpu3.op_class::SimdMult                      0      0.00%     43.48% # Class of executed instruction
system.cpu3.op_class::SimdMultAcc                   0      0.00%     43.48% # Class of executed instruction
system.cpu3.op_class::SimdShift                     0      0.00%     43.48% # Class of executed instruction
system.cpu3.op_class::SimdShiftAcc                  0      0.00%     43.48% # Class of executed instruction
system.cpu3.op_class::SimdDiv                       0      0.00%     43.48% # Class of executed instruction
system.cpu3.op_class::SimdSqrt                      0      0.00%     43.48% # Class of executed instruction
system.cpu3.op_class::SimdFloatAdd                  4     17.39%     60.87% # Class of executed instruction
system.cpu3.op_class::SimdFloatAlu                  0      0.00%     60.87% # Class of executed instruction
system.cpu3.op_class::SimdFloatCmp                  0      0.00%     60.87% # Class of executed instruction
system.cpu3.op_class::SimdFloatCvt                  0      0.00%     60.87% # Class of executed instruction
system.cpu3.op_class::SimdFloatDiv                  0      0.00%     60.87% # Class of executed instruction
system.cpu3.op_class::SimdFloatMisc                 0      0.00%     60.87% # Class of executed instruction
system.cpu3.op_class::SimdFloatMult                 2      8.70%     69.57% # Class of executed instruction
system.cpu3.op_class::SimdFloatMultAcc              0      0.00%     69.57% # Class of executed instruction
system.cpu3.op_class::SimdFloatSqrt                 0      0.00%     69.57% # Class of executed instruction
system.cpu3.op_class::SimdReduceAdd                 0      0.00%     69.57% # Class of executed instruction
system.cpu3.op_class::SimdReduceAlu                 0      0.00%     69.57% # Class of executed instruction
system.cpu3.op_class::SimdReduceCmp                 0      0.00%     69.57% # Class of executed instruction
system.cpu3.op_class::SimdFloatReduceAdd            0      0.00%     69.57% # Class of executed instruction
system.cpu3.op_class::SimdFloatReduceCmp            0      0.00%     69.57% # Class of executed instruction
system.cpu3.op_class::SimdAes                       0      0.00%     69.57% # Class of executed instruction
system.cpu3.op_class::SimdAesMix                    0      0.00%     69.57% # Class of executed instruction
system.cpu3.op_class::SimdSha1Hash                  0      0.00%     69.57% # Class of executed instruction
system.cpu3.op_class::SimdSha1Hash2                 0      0.00%     69.57% # Class of executed instruction
system.cpu3.op_class::SimdSha256Hash                0      0.00%     69.57% # Class of executed instruction
system.cpu3.op_class::SimdSha256Hash2               0      0.00%     69.57% # Class of executed instruction
system.cpu3.op_class::SimdShaSigma2                 0      0.00%     69.57% # Class of executed instruction
system.cpu3.op_class::SimdShaSigma3                 0      0.00%     69.57% # Class of executed instruction
system.cpu3.op_class::SimdPredAlu                   0      0.00%     69.57% # Class of executed instruction
system.cpu3.op_class::MemRead                       2      8.70%     78.26% # Class of executed instruction
system.cpu3.op_class::MemWrite                      0      0.00%     78.26% # Class of executed instruction
system.cpu3.op_class::FloatMemRead                  4     17.39%     95.65% # Class of executed instruction
system.cpu3.op_class::FloatMemWrite                 1      4.35%    100.00% # Class of executed instruction
system.cpu3.op_class::IprAccess                     0      0.00%    100.00% # Class of executed instruction
system.cpu3.op_class::InstPrefetch                  0      0.00%    100.00% # Class of executed instruction
system.cpu3.op_class::total                        23                       # Class of executed instruction
system.cpu3.workload.numSyscalls                    0                       # Number of system calls
system.l3bus.snoop_filter.hit_multi_requests            0                       # Number of requests hitting in the snoop filter with multiple (>1) holders of the requested data.
system.l3bus.snoop_filter.hit_multi_snoops            0                       # Number of snoops hitting in the snoop filter with multiple (>1) holders of the requested data.
system.l3bus.snoop_filter.hit_single_requests      1246619                       # Number of requests hitting in the snoop filter with a single holder of the requested data.
system.l3bus.snoop_filter.hit_single_snoops            0                       # Number of snoops hitting in the snoop filter with a single holder of the requested data.
system.l3bus.snoop_filter.tot_requests        2507879                       # Total number of requests made to the snoop filter.
system.l3bus.snoop_filter.tot_snoops                0                       # Total number of snoops made to the snoop filter.
system.membus.snoop_filter.hit_multi_requests            0                       # Number of requests hitting in the snoop filter with multiple (>1) holders of the requested data.
system.membus.snoop_filter.hit_multi_snoops            0                       # Number of snoops hitting in the snoop filter with multiple (>1) holders of the requested data.
system.membus.snoop_filter.hit_single_requests       591308                       # Number of requests hitting in the snoop filter with a single holder of the requested data.
system.membus.snoop_filter.hit_single_snoops            0                       # Number of snoops hitting in the snoop filter with a single holder of the requested data.
system.membus.snoop_filter.tot_requests       1261017                       # Total number of requests made to the snoop filter.
system.membus.snoop_filter.tot_snoops               0                       # Total number of snoops made to the snoop filter.
system.switch_cpus0.cc_regfile_reads        168506972                       # number of cc regfile reads
system.switch_cpus0.cc_regfile_writes       114447260                       # number of cc regfile writes
system.switch_cpus0.committedInsts          127360436                       # Number of Instructions Simulated
system.switch_cpus0.committedOps            237860430                       # Number of Ops (including micro ops) Simulated
system.switch_cpus0.cpi                      0.947429                       # CPI: Cycles Per Instruction
system.switch_cpus0.cpi_total                0.947429                       # CPI: Total CPI of All Threads
system.switch_cpus0.fp_regfile_reads           858464                       # number of floating regfile reads
system.switch_cpus0.fp_regfile_writes          654529                       # number of floating regfile writes
system.switch_cpus0.idleCycles                  99159                       # Total number of cycles that the CPU has spent unscheduled due to idling
system.switch_cpus0.iew.branchMispredicts      2919579                       # Number of branch mispredicts detected at execute
system.switch_cpus0.iew.exec_branches        30651779                       # Number of branches executed
system.switch_cpus0.iew.exec_nop                    0                       # number of nop insts executed
system.switch_cpus0.iew.exec_rate            2.756067                       # Inst execution rate
system.switch_cpus0.iew.exec_refs            66438260                       # number of memory reference insts executed
system.switch_cpus0.iew.exec_stores          16390210                       # Number of stores executed
system.switch_cpus0.iew.exec_swp                    0                       # number of swp insts executed
system.switch_cpus0.iew.iewBlockCycles       20586096                       # Number of cycles IEW is blocking
system.switch_cpus0.iew.iewDispLoadInsts     61908345                       # Number of dispatched load instructions
system.switch_cpus0.iew.iewDispNonSpecInsts            3                       # Number of dispatched non-speculative instructions
system.switch_cpus0.iew.iewDispSquashedInsts        77189                       # Number of squashed instructions skipped by dispatch
system.switch_cpus0.iew.iewDispStoreInsts     20164164                       # Number of dispatched store instructions
system.switch_cpus0.iew.iewDispatchedInsts    404410605                       # Number of instructions dispatched to IQ
system.switch_cpus0.iew.iewExecLoadInsts     50048050                       # Number of load instructions executed
system.switch_cpus0.iew.iewExecSquashedInsts      5508459                       # Number of squashed instructions skipped in execute
system.switch_cpus0.iew.iewExecutedInsts    332560797                       # Number of executed instructions
system.switch_cpus0.iew.iewIQFullEvents          6417                       # Number of times the IQ has become full, causing a stall
system.switch_cpus0.iew.iewIdleCycles               0                       # Number of cycles IEW is idle
system.switch_cpus0.iew.iewLSQFullEvents        19388                       # Number of times the LSQ has become full, causing a stall
system.switch_cpus0.iew.iewSquashCycles       2588267                       # Number of cycles IEW is squashing
system.switch_cpus0.iew.iewUnblockCycles        27253                       # Number of cycles IEW is unblocking
system.switch_cpus0.iew.memOrderViolationEvents        19565                       # Number of memory order violations
system.switch_cpus0.iew.predictedNotTakenIncorrect      1614049                       # Number of branches that were predicted not taken incorrectly
system.switch_cpus0.iew.predictedTakenIncorrect      1305530                       # Number of branches that were predicted taken incorrectly
system.switch_cpus0.iew.wb_consumers        459784213                       # num instructions consuming a value
system.switch_cpus0.iew.wb_count            330188934                       # cumulative count of insts written-back
system.switch_cpus0.iew.wb_fanout            0.559806                       # average fanout of values written-back
system.switch_cpus0.iew.wb_producers        257389931                       # num instructions producing a value
system.switch_cpus0.iew.wb_rate              2.736411                       # insts written-back per cycle
system.switch_cpus0.iew.wb_sent             331938039                       # cumulative count of insts sent to commit
system.switch_cpus0.int_regfile_reads       515241579                       # number of integer regfile reads
system.switch_cpus0.int_regfile_writes      294976993                       # number of integer regfile writes
system.switch_cpus0.ipc                      1.055488                       # IPC: Instructions Per Cycle
system.switch_cpus0.ipc_total                1.055488                       # IPC: Total IPC of All Threads
system.switch_cpus0.iq.FU_type_0::No_OpClass      1797943      0.53%      0.53% # Type of FU issued
system.switch_cpus0.iq.FU_type_0::IntAlu    260868764     77.16%     77.70% # Type of FU issued
system.switch_cpus0.iq.FU_type_0::IntMult      1647410      0.49%     78.18% # Type of FU issued
system.switch_cpus0.iq.FU_type_0::IntDiv      4747546      1.40%     79.59% # Type of FU issued
system.switch_cpus0.iq.FU_type_0::FloatAdd        28491      0.01%     79.60% # Type of FU issued
system.switch_cpus0.iq.FU_type_0::FloatCmp            0      0.00%     79.60% # Type of FU issued
system.switch_cpus0.iq.FU_type_0::FloatCvt            0      0.00%     79.60% # Type of FU issued
system.switch_cpus0.iq.FU_type_0::FloatMult            0      0.00%     79.60% # Type of FU issued
system.switch_cpus0.iq.FU_type_0::FloatMultAcc            0      0.00%     79.60% # Type of FU issued
system.switch_cpus0.iq.FU_type_0::FloatDiv            0      0.00%     79.60% # Type of FU issued
system.switch_cpus0.iq.FU_type_0::FloatMisc            0      0.00%     79.60% # Type of FU issued
system.switch_cpus0.iq.FU_type_0::FloatSqrt            0      0.00%     79.60% # Type of FU issued
system.switch_cpus0.iq.FU_type_0::SimdAdd            0      0.00%     79.60% # Type of FU issued
system.switch_cpus0.iq.FU_type_0::SimdAddAcc            0      0.00%     79.60% # Type of FU issued
system.switch_cpus0.iq.FU_type_0::SimdAlu        27048      0.01%     79.60% # Type of FU issued
system.switch_cpus0.iq.FU_type_0::SimdCmp            0      0.00%     79.60% # Type of FU issued
system.switch_cpus0.iq.FU_type_0::SimdCvt            0      0.00%     79.60% # Type of FU issued
system.switch_cpus0.iq.FU_type_0::SimdMisc        59337      0.02%     79.62% # Type of FU issued
system.switch_cpus0.iq.FU_type_0::SimdMult            0      0.00%     79.62% # Type of FU issued
system.switch_cpus0.iq.FU_type_0::SimdMultAcc            0      0.00%     79.62% # Type of FU issued
system.switch_cpus0.iq.FU_type_0::SimdShift            0      0.00%     79.62% # Type of FU issued
system.switch_cpus0.iq.FU_type_0::SimdShiftAcc            0      0.00%     79.62% # Type of FU issued
system.switch_cpus0.iq.FU_type_0::SimdDiv            0      0.00%     79.62% # Type of FU issued
system.switch_cpus0.iq.FU_type_0::SimdSqrt            0      0.00%     79.62% # Type of FU issued
system.switch_cpus0.iq.FU_type_0::SimdFloatAdd        56418      0.02%     79.64% # Type of FU issued
system.switch_cpus0.iq.FU_type_0::SimdFloatAlu            0      0.00%     79.64% # Type of FU issued
system.switch_cpus0.iq.FU_type_0::SimdFloatCmp            0      0.00%     79.64% # Type of FU issued
system.switch_cpus0.iq.FU_type_0::SimdFloatCvt       126194      0.04%     79.68% # Type of FU issued
system.switch_cpus0.iq.FU_type_0::SimdFloatDiv         1478      0.00%     79.68% # Type of FU issued
system.switch_cpus0.iq.FU_type_0::SimdFloatMisc            0      0.00%     79.68% # Type of FU issued
system.switch_cpus0.iq.FU_type_0::SimdFloatMult            0      0.00%     79.68% # Type of FU issued
system.switch_cpus0.iq.FU_type_0::SimdFloatMultAcc            0      0.00%     79.68% # Type of FU issued
system.switch_cpus0.iq.FU_type_0::SimdFloatSqrt            0      0.00%     79.68% # Type of FU issued
system.switch_cpus0.iq.FU_type_0::SimdReduceAdd            0      0.00%     79.68% # Type of FU issued
system.switch_cpus0.iq.FU_type_0::SimdReduceAlu            0      0.00%     79.68% # Type of FU issued
system.switch_cpus0.iq.FU_type_0::SimdReduceCmp            0      0.00%     79.68% # Type of FU issued
system.switch_cpus0.iq.FU_type_0::SimdFloatReduceAdd            0      0.00%     79.68% # Type of FU issued
system.switch_cpus0.iq.FU_type_0::SimdFloatReduceCmp            0      0.00%     79.68% # Type of FU issued
system.switch_cpus0.iq.FU_type_0::SimdAes            0      0.00%     79.68% # Type of FU issued
system.switch_cpus0.iq.FU_type_0::SimdAesMix            0      0.00%     79.68% # Type of FU issued
system.switch_cpus0.iq.FU_type_0::SimdSha1Hash            0      0.00%     79.68% # Type of FU issued
system.switch_cpus0.iq.FU_type_0::SimdSha1Hash2            0      0.00%     79.68% # Type of FU issued
system.switch_cpus0.iq.FU_type_0::SimdSha256Hash            0      0.00%     79.68% # Type of FU issued
system.switch_cpus0.iq.FU_type_0::SimdSha256Hash2            0      0.00%     79.68% # Type of FU issued
system.switch_cpus0.iq.FU_type_0::SimdShaSigma2            0      0.00%     79.68% # Type of FU issued
system.switch_cpus0.iq.FU_type_0::SimdShaSigma3            0      0.00%     79.68% # Type of FU issued
system.switch_cpus0.iq.FU_type_0::SimdPredAlu            0      0.00%     79.68% # Type of FU issued
system.switch_cpus0.iq.FU_type_0::MemRead     51381594     15.20%     94.87% # Type of FU issued
system.switch_cpus0.iq.FU_type_0::MemWrite     16589901      4.91%     99.78% # Type of FU issued
system.switch_cpus0.iq.FU_type_0::FloatMemRead       434447      0.13%     99.91% # Type of FU issued
system.switch_cpus0.iq.FU_type_0::FloatMemWrite       302685      0.09%    100.00% # Type of FU issued
system.switch_cpus0.iq.FU_type_0::IprAccess            0      0.00%    100.00% # Type of FU issued
system.switch_cpus0.iq.FU_type_0::InstPrefetch            0      0.00%    100.00% # Type of FU issued
system.switch_cpus0.iq.FU_type_0::total     338069256                       # Type of FU issued
system.switch_cpus0.iq.fp_alu_accesses        1057684                       # Number of floating point alu accesses
system.switch_cpus0.iq.fp_inst_queue_reads      2105918                       # Number of floating instruction queue reads
system.switch_cpus0.iq.fp_inst_queue_wakeup_accesses      1015549                       # Number of floating instruction queue wakeup accesses
system.switch_cpus0.iq.fp_inst_queue_writes      1219482                       # Number of floating instruction queue writes
system.switch_cpus0.iq.fu_busy_cnt            5757119                       # FU busy when requested
system.switch_cpus0.iq.fu_busy_rate          0.017029                       # FU busy rate (busy events/executed inst)
system.switch_cpus0.iq.fu_full::No_OpClass            0      0.00%      0.00% # attempts to use FU when none available
system.switch_cpus0.iq.fu_full::IntAlu        4859317     84.41%     84.41% # attempts to use FU when none available
system.switch_cpus0.iq.fu_full::IntMult             0      0.00%     84.41% # attempts to use FU when none available
system.switch_cpus0.iq.fu_full::IntDiv              0      0.00%     84.41% # attempts to use FU when none available
system.switch_cpus0.iq.fu_full::FloatAdd            0      0.00%     84.41% # attempts to use FU when none available
system.switch_cpus0.iq.fu_full::FloatCmp            0      0.00%     84.41% # attempts to use FU when none available
system.switch_cpus0.iq.fu_full::FloatCvt            0      0.00%     84.41% # attempts to use FU when none available
system.switch_cpus0.iq.fu_full::FloatMult            0      0.00%     84.41% # attempts to use FU when none available
system.switch_cpus0.iq.fu_full::FloatMultAcc            0      0.00%     84.41% # attempts to use FU when none available
system.switch_cpus0.iq.fu_full::FloatDiv            0      0.00%     84.41% # attempts to use FU when none available
system.switch_cpus0.iq.fu_full::FloatMisc            0      0.00%     84.41% # attempts to use FU when none available
system.switch_cpus0.iq.fu_full::FloatSqrt            0      0.00%     84.41% # attempts to use FU when none available
system.switch_cpus0.iq.fu_full::SimdAdd             0      0.00%     84.41% # attempts to use FU when none available
system.switch_cpus0.iq.fu_full::SimdAddAcc            0      0.00%     84.41% # attempts to use FU when none available
system.switch_cpus0.iq.fu_full::SimdAlu             0      0.00%     84.41% # attempts to use FU when none available
system.switch_cpus0.iq.fu_full::SimdCmp             0      0.00%     84.41% # attempts to use FU when none available
system.switch_cpus0.iq.fu_full::SimdCvt             0      0.00%     84.41% # attempts to use FU when none available
system.switch_cpus0.iq.fu_full::SimdMisc            0      0.00%     84.41% # attempts to use FU when none available
system.switch_cpus0.iq.fu_full::SimdMult            0      0.00%     84.41% # attempts to use FU when none available
system.switch_cpus0.iq.fu_full::SimdMultAcc            0      0.00%     84.41% # attempts to use FU when none available
system.switch_cpus0.iq.fu_full::SimdShift            0      0.00%     84.41% # attempts to use FU when none available
system.switch_cpus0.iq.fu_full::SimdShiftAcc            0      0.00%     84.41% # attempts to use FU when none available
system.switch_cpus0.iq.fu_full::SimdDiv             0      0.00%     84.41% # attempts to use FU when none available
system.switch_cpus0.iq.fu_full::SimdSqrt            0      0.00%     84.41% # attempts to use FU when none available
system.switch_cpus0.iq.fu_full::SimdFloatAdd            0      0.00%     84.41% # attempts to use FU when none available
system.switch_cpus0.iq.fu_full::SimdFloatAlu            0      0.00%     84.41% # attempts to use FU when none available
system.switch_cpus0.iq.fu_full::SimdFloatCmp            0      0.00%     84.41% # attempts to use FU when none available
system.switch_cpus0.iq.fu_full::SimdFloatCvt            0      0.00%     84.41% # attempts to use FU when none available
system.switch_cpus0.iq.fu_full::SimdFloatDiv            0      0.00%     84.41% # attempts to use FU when none available
system.switch_cpus0.iq.fu_full::SimdFloatMisc            0      0.00%     84.41% # attempts to use FU when none available
system.switch_cpus0.iq.fu_full::SimdFloatMult            0      0.00%     84.41% # attempts to use FU when none available
system.switch_cpus0.iq.fu_full::SimdFloatMultAcc            0      0.00%     84.41% # attempts to use FU when none available
system.switch_cpus0.iq.fu_full::SimdFloatSqrt            0      0.00%     84.41% # attempts to use FU when none available
system.switch_cpus0.iq.fu_full::SimdReduceAdd            0      0.00%     84.41% # attempts to use FU when none available
system.switch_cpus0.iq.fu_full::SimdReduceAlu            0      0.00%     84.41% # attempts to use FU when none available
system.switch_cpus0.iq.fu_full::SimdReduceCmp            0      0.00%     84.41% # attempts to use FU when none available
system.switch_cpus0.iq.fu_full::SimdFloatReduceAdd            0      0.00%     84.41% # attempts to use FU when none available
system.switch_cpus0.iq.fu_full::SimdFloatReduceCmp            0      0.00%     84.41% # attempts to use FU when none available
system.switch_cpus0.iq.fu_full::SimdAes             0      0.00%     84.41% # attempts to use FU when none available
system.switch_cpus0.iq.fu_full::SimdAesMix            0      0.00%     84.41% # attempts to use FU when none available
system.switch_cpus0.iq.fu_full::SimdSha1Hash            0      0.00%     84.41% # attempts to use FU when none available
system.switch_cpus0.iq.fu_full::SimdSha1Hash2            0      0.00%     84.41% # attempts to use FU when none available
system.switch_cpus0.iq.fu_full::SimdSha256Hash            0      0.00%     84.41% # attempts to use FU when none available
system.switch_cpus0.iq.fu_full::SimdSha256Hash2            0      0.00%     84.41% # attempts to use FU when none available
system.switch_cpus0.iq.fu_full::SimdShaSigma2            0      0.00%     84.41% # attempts to use FU when none available
system.switch_cpus0.iq.fu_full::SimdShaSigma3            0      0.00%     84.41% # attempts to use FU when none available
system.switch_cpus0.iq.fu_full::SimdPredAlu            0      0.00%     84.41% # attempts to use FU when none available
system.switch_cpus0.iq.fu_full::MemRead        707735     12.29%     96.70% # attempts to use FU when none available
system.switch_cpus0.iq.fu_full::MemWrite       178488      3.10%     99.80% # attempts to use FU when none available
system.switch_cpus0.iq.fu_full::FloatMemRead         4733      0.08%     99.88% # attempts to use FU when none available
system.switch_cpus0.iq.fu_full::FloatMemWrite         6846      0.12%    100.00% # attempts to use FU when none available
system.switch_cpus0.iq.fu_full::IprAccess            0      0.00%    100.00% # attempts to use FU when none available
system.switch_cpus0.iq.fu_full::InstPrefetch            0      0.00%    100.00% # attempts to use FU when none available
system.switch_cpus0.iq.int_alu_accesses     340970748                       # Number of integer alu accesses
system.switch_cpus0.iq.int_inst_queue_reads    801974776                       # Number of integer instruction queue reads
system.switch_cpus0.iq.int_inst_queue_wakeup_accesses    329173385                       # Number of integer instruction queue wakeup accesses
system.switch_cpus0.iq.int_inst_queue_writes    569760064                       # Number of integer instruction queue writes
system.switch_cpus0.iq.iqInstsAdded         404410596                       # Number of instructions added to the IQ (excludes non-spec)
system.switch_cpus0.iq.iqInstsIssued        338069256                       # Number of instructions issued
system.switch_cpus0.iq.iqNonSpecInstsAdded            9                       # Number of non-speculative instructions added to the IQ
system.switch_cpus0.iq.iqSquashedInstsExamined    166550170                       # Number of squashed instructions iterated over during squash; mainly for profiling
system.switch_cpus0.iq.iqSquashedInstsIssued      1619240                       # Number of squashed instructions issued
system.switch_cpus0.iq.iqSquashedNonSpecRemoved            9                       # Number of squashed non-spec instructions that were removed
system.switch_cpus0.iq.iqSquashedOperandsExamined    243730492                       # Number of squashed operands that are examined and possibly removed from graph
system.switch_cpus0.iq.issued_per_cycle::samples    120565823                       # Number of insts issued each cycle
system.switch_cpus0.iq.issued_per_cycle::mean     2.804022                       # Number of insts issued each cycle
system.switch_cpus0.iq.issued_per_cycle::stdev     2.591763                       # Number of insts issued each cycle
system.switch_cpus0.iq.issued_per_cycle::underflows            0      0.00%      0.00% # Number of insts issued each cycle
system.switch_cpus0.iq.issued_per_cycle::0     37205882     30.86%     30.86% # Number of insts issued each cycle
system.switch_cpus0.iq.issued_per_cycle::1     12705464     10.54%     41.40% # Number of insts issued each cycle
system.switch_cpus0.iq.issued_per_cycle::2     11930254      9.90%     51.29% # Number of insts issued each cycle
system.switch_cpus0.iq.issued_per_cycle::3     11702790      9.71%     61.00% # Number of insts issued each cycle
system.switch_cpus0.iq.issued_per_cycle::4     11704007      9.71%     70.71% # Number of insts issued each cycle
system.switch_cpus0.iq.issued_per_cycle::5     11292446      9.37%     80.07% # Number of insts issued each cycle
system.switch_cpus0.iq.issued_per_cycle::6     10572598      8.77%     88.84% # Number of insts issued each cycle
system.switch_cpus0.iq.issued_per_cycle::7      7937988      6.58%     95.43% # Number of insts issued each cycle
system.switch_cpus0.iq.issued_per_cycle::8      5514394      4.57%    100.00% # Number of insts issued each cycle
system.switch_cpus0.iq.issued_per_cycle::overflows            0      0.00%    100.00% # Number of insts issued each cycle
system.switch_cpus0.iq.issued_per_cycle::min_value            0                       # Number of insts issued each cycle
system.switch_cpus0.iq.issued_per_cycle::max_value            8                       # Number of insts issued each cycle
system.switch_cpus0.iq.issued_per_cycle::total    120565823                       # Number of insts issued each cycle
system.switch_cpus0.iq.rate                  2.801718                       # Inst issue rate
system.switch_cpus0.iq.vec_alu_accesses             0                       # Number of vector alu accesses
system.switch_cpus0.iq.vec_inst_queue_reads            0                       # Number of vector instruction queue reads
system.switch_cpus0.iq.vec_inst_queue_wakeup_accesses            0                       # Number of vector instruction queue wakeup accesses
system.switch_cpus0.iq.vec_inst_queue_writes            0                       # Number of vector instruction queue writes
system.switch_cpus0.memDep0.conflictingLoads      3508091                       # Number of conflicting loads.
system.switch_cpus0.memDep0.conflictingStores      1986917                       # Number of conflicting stores.
system.switch_cpus0.memDep0.insertedLoads     61908345                       # Number of loads inserted to the mem dependence unit.
system.switch_cpus0.memDep0.insertedStores     20164164                       # Number of stores inserted to the mem dependence unit.
system.switch_cpus0.misc_regfile_reads      129709313                       # number of misc regfile reads
system.switch_cpus0.misc_regfile_writes             1                       # number of misc regfile writes
system.switch_cpus0.numCycles               120664982                       # number of cpu cycles simulated
system.switch_cpus0.numWorkItemsCompleted            0                       # number of work items this cpu completed
system.switch_cpus0.numWorkItemsStarted             0                       # number of work items this cpu started
system.switch_cpus0.timesIdled                    366                       # Number of times that the entire CPU went into an idle state and unscheduled itself
system.switch_cpus1.cc_regfile_reads        207712971                       # number of cc regfile reads
system.switch_cpus1.cc_regfile_writes       212854491                       # number of cc regfile writes
system.switch_cpus1.committedInsts          217752950                       # Number of Instructions Simulated
system.switch_cpus1.committedOps            426621737                       # Number of Ops (including micro ops) Simulated
system.switch_cpus1.cpi                      0.554137                       # CPI: Cycles Per Instruction
system.switch_cpus1.cpi_total                0.554137                       # CPI: Total CPI of All Threads
system.switch_cpus1.fp_regfile_reads             6894                       # number of floating regfile reads
system.switch_cpus1.fp_regfile_writes            6986                       # number of floating regfile writes
system.switch_cpus1.idleCycles                 266675                       # Total number of cycles that the CPU has spent unscheduled due to idling
system.switch_cpus1.iew.branchMispredicts      2473054                       # Number of branch mispredicts detected at execute
system.switch_cpus1.iew.exec_branches        40714471                       # Number of branches executed
system.switch_cpus1.iew.exec_nop                    0                       # number of nop insts executed
system.switch_cpus1.iew.exec_rate            4.207698                       # Inst execution rate
system.switch_cpus1.iew.exec_refs           147820118                       # number of memory reference insts executed
system.switch_cpus1.iew.exec_stores          40199936                       # Number of stores executed
system.switch_cpus1.iew.exec_swp                    0                       # number of swp insts executed
system.switch_cpus1.iew.iewBlockCycles       14729824                       # Number of cycles IEW is blocking
system.switch_cpus1.iew.iewDispLoadInsts    117130549                       # Number of dispatched load instructions
system.switch_cpus1.iew.iewDispNonSpecInsts            0                       # Number of dispatched non-speculative instructions
system.switch_cpus1.iew.iewDispSquashedInsts        10815                       # Number of squashed instructions skipped by dispatch
system.switch_cpus1.iew.iewDispStoreInsts     46826542                       # Number of dispatched store instructions
system.switch_cpus1.iew.iewDispatchedInsts    551777799                       # Number of instructions dispatched to IQ
system.switch_cpus1.iew.iewExecLoadInsts    107620182                       # Number of load instructions executed
system.switch_cpus1.iew.iewExecSquashedInsts      6840793                       # Number of squashed instructions skipped in execute
system.switch_cpus1.iew.iewExecutedInsts    507721826                       # Number of executed instructions
system.switch_cpus1.iew.iewIQFullEvents            34                       # Number of times the IQ has become full, causing a stall
system.switch_cpus1.iew.iewIdleCycles               0                       # Number of cycles IEW is idle
system.switch_cpus1.iew.iewLSQFullEvents         3570                       # Number of times the LSQ has become full, causing a stall
system.switch_cpus1.iew.iewSquashCycles       2018018                       # Number of cycles IEW is squashing
system.switch_cpus1.iew.iewUnblockCycles         3614                       # Number of cycles IEW is unblocking
system.switch_cpus1.iew.memOrderViolationEvents        35072                       # Number of memory order violations
system.switch_cpus1.iew.predictedNotTakenIncorrect      1231666                       # Number of branches that were predicted not taken incorrectly
system.switch_cpus1.iew.predictedTakenIncorrect      1241388                       # Number of branches that were predicted taken incorrectly
system.switch_cpus1.iew.wb_consumers        570135583                       # num instructions consuming a value
system.switch_cpus1.iew.wb_count            504559454                       # cumulative count of insts written-back
system.switch_cpus1.iew.wb_fanout            0.668561                       # average fanout of values written-back
system.switch_cpus1.iew.wb_producers        381170264                       # num instructions producing a value
system.switch_cpus1.iew.wb_rate              4.181490                       # insts written-back per cycle
system.switch_cpus1.iew.wb_sent             506668862                       # cumulative count of insts sent to commit
system.switch_cpus1.int_regfile_reads       733564181                       # number of integer regfile reads
system.switch_cpus1.int_regfile_writes      425856393                       # number of integer regfile writes
system.switch_cpus1.ipc                      1.804608                       # IPC: Instructions Per Cycle
system.switch_cpus1.ipc_total                1.804608                       # IPC: Total IPC of All Threads
system.switch_cpus1.iq.FU_type_0::No_OpClass      1122437      0.22%      0.22% # Type of FU issued
system.switch_cpus1.iq.FU_type_0::IntAlu    359264427     69.82%     70.04% # Type of FU issued
system.switch_cpus1.iq.FU_type_0::IntMult      3043186      0.59%     70.63% # Type of FU issued
system.switch_cpus1.iq.FU_type_0::IntDiv        32116      0.01%     70.64% # Type of FU issued
system.switch_cpus1.iq.FU_type_0::FloatAdd            0      0.00%     70.64% # Type of FU issued
system.switch_cpus1.iq.FU_type_0::FloatCmp            0      0.00%     70.64% # Type of FU issued
system.switch_cpus1.iq.FU_type_0::FloatCvt            0      0.00%     70.64% # Type of FU issued
system.switch_cpus1.iq.FU_type_0::FloatMult            0      0.00%     70.64% # Type of FU issued
system.switch_cpus1.iq.FU_type_0::FloatMultAcc            0      0.00%     70.64% # Type of FU issued
system.switch_cpus1.iq.FU_type_0::FloatDiv            0      0.00%     70.64% # Type of FU issued
system.switch_cpus1.iq.FU_type_0::FloatMisc            0      0.00%     70.64% # Type of FU issued
system.switch_cpus1.iq.FU_type_0::FloatSqrt            0      0.00%     70.64% # Type of FU issued
system.switch_cpus1.iq.FU_type_0::SimdAdd            0      0.00%     70.64% # Type of FU issued
system.switch_cpus1.iq.FU_type_0::SimdAddAcc            0      0.00%     70.64% # Type of FU issued
system.switch_cpus1.iq.FU_type_0::SimdAlu            0      0.00%     70.64% # Type of FU issued
system.switch_cpus1.iq.FU_type_0::SimdCmp            0      0.00%     70.64% # Type of FU issued
system.switch_cpus1.iq.FU_type_0::SimdCvt            0      0.00%     70.64% # Type of FU issued
system.switch_cpus1.iq.FU_type_0::SimdMisc            0      0.00%     70.64% # Type of FU issued
system.switch_cpus1.iq.FU_type_0::SimdMult            0      0.00%     70.64% # Type of FU issued
system.switch_cpus1.iq.FU_type_0::SimdMultAcc            0      0.00%     70.64% # Type of FU issued
system.switch_cpus1.iq.FU_type_0::SimdShift            0      0.00%     70.64% # Type of FU issued
system.switch_cpus1.iq.FU_type_0::SimdShiftAcc            0      0.00%     70.64% # Type of FU issued
system.switch_cpus1.iq.FU_type_0::SimdDiv            0      0.00%     70.64% # Type of FU issued
system.switch_cpus1.iq.FU_type_0::SimdSqrt            0      0.00%     70.64% # Type of FU issued
system.switch_cpus1.iq.FU_type_0::SimdFloatAdd            0      0.00%     70.64% # Type of FU issued
system.switch_cpus1.iq.FU_type_0::SimdFloatAlu            0      0.00%     70.64% # Type of FU issued
system.switch_cpus1.iq.FU_type_0::SimdFloatCmp            0      0.00%     70.64% # Type of FU issued
system.switch_cpus1.iq.FU_type_0::SimdFloatCvt            0      0.00%     70.64% # Type of FU issued
system.switch_cpus1.iq.FU_type_0::SimdFloatDiv            0      0.00%     70.64% # Type of FU issued
system.switch_cpus1.iq.FU_type_0::SimdFloatMisc            0      0.00%     70.64% # Type of FU issued
system.switch_cpus1.iq.FU_type_0::SimdFloatMult            0      0.00%     70.64% # Type of FU issued
system.switch_cpus1.iq.FU_type_0::SimdFloatMultAcc            0      0.00%     70.64% # Type of FU issued
system.switch_cpus1.iq.FU_type_0::SimdFloatSqrt            0      0.00%     70.64% # Type of FU issued
system.switch_cpus1.iq.FU_type_0::SimdReduceAdd            0      0.00%     70.64% # Type of FU issued
system.switch_cpus1.iq.FU_type_0::SimdReduceAlu            0      0.00%     70.64% # Type of FU issued
system.switch_cpus1.iq.FU_type_0::SimdReduceCmp            0      0.00%     70.64% # Type of FU issued
system.switch_cpus1.iq.FU_type_0::SimdFloatReduceAdd            0      0.00%     70.64% # Type of FU issued
system.switch_cpus1.iq.FU_type_0::SimdFloatReduceCmp            0      0.00%     70.64% # Type of FU issued
[...]
system.switch_cpus3.commit.numCommittedDist::stdev     3.038300                       # Number of insts commited each cycle
system.switch_cpus3.commit.numCommittedDist::underflows            0      0.00%      0.00% # Number of insts commited each cycle
system.switch_cpus3.commit.numCommittedDist::0     85098881     70.58%     70.58% # Number of insts commited each cycle
system.switch_cpus3.commit.numCommittedDist::1      6114677      5.07%     75.65% # Number of insts commited each cycle
system.switch_cpus3.commit.numCommittedDist::2      2186083      1.81%     77.46% # Number of insts commited each cycle
system.switch_cpus3.commit.numCommittedDist::3      2651190      2.20%     79.66% # Number of insts commited each cycle
system.switch_cpus3.commit.numCommittedDist::4      1900638      1.58%     81.23% # Number of insts commited each cycle
system.switch_cpus3.commit.numCommittedDist::5       860426      0.71%     81.95% # Number of insts commited each cycle
system.switch_cpus3.commit.numCommittedDist::6       402569      0.33%     82.28% # Number of insts commited each cycle
system.switch_cpus3.commit.numCommittedDist::7      1317415      1.09%     83.37% # Number of insts commited each cycle
system.switch_cpus3.commit.numCommittedDist::8     20047147     16.63%    100.00% # Number of insts commited each cycle
system.switch_cpus3.commit.numCommittedDist::overflows            0      0.00%    100.00% # Number of insts commited each cycle
system.switch_cpus3.commit.numCommittedDist::min_value            0                       # Number of insts commited each cycle
system.switch_cpus3.commit.numCommittedDist::max_value            8                       # Number of insts commited each cycle
system.switch_cpus3.commit.numCommittedDist::total    120579026                       # Number of insts commited each cycle
system.switch_cpus3.commit.instsCommitted    123329798                       # Number of instructions committed
system.switch_cpus3.commit.opsCommitted     202359590                       # Number of ops (including micro ops) committed
system.switch_cpus3.commit.memRefs           45492046                       # Number of memory references committed
system.switch_cpus3.commit.loads             32110158                       # Number of loads committed
system.switch_cpus3.commit.amos                     0                       # Number of atomic instructions committed
system.switch_cpus3.commit.membars                  0                       # Number of memory barriers committed
system.switch_cpus3.commit.branches          14972976                       # Number of branches committed
system.switch_cpus3.commit.vector                   0                       # Number of committed Vector instructions.
system.switch_cpus3.commit.floating          87254736                       # Number of committed floating point instructions.
system.switch_cpus3.commit.integer          144842028                       # Number of committed integer instructions.
system.switch_cpus3.commit.functionCalls      1114616                       # Number of function calls committed.
system.switch_cpus3.commit.committedInstType_0::No_OpClass         8575      0.00%      0.00% # Class of committed instruction
system.switch_cpus3.commit.committedInstType_0::IntAlu    112916305     55.80%     55.80% # Class of committed instruction
system.switch_cpus3.commit.committedInstType_0::IntMult         3603      0.00%     55.81% # Class of committed instruction
system.switch_cpus3.commit.committedInstType_0::IntDiv            0      0.00%     55.81% # Class of committed instruction
system.switch_cpus3.commit.committedInstType_0::FloatAdd      4178219      2.06%     57.87% # Class of committed instruction
system.switch_cpus3.commit.committedInstType_0::FloatCmp            0      0.00%     57.87% # Class of committed instruction
system.switch_cpus3.commit.committedInstType_0::FloatCvt            0      0.00%     57.87% # Class of committed instruction
system.switch_cpus3.commit.committedInstType_0::FloatMult            0      0.00%     57.87% # Class of committed instruction
system.switch_cpus3.commit.committedInstType_0::FloatMultAcc            0      0.00%     57.87% # Class of committed instruction
system.switch_cpus3.commit.committedInstType_0::FloatDiv            0      0.00%     57.87% # Class of committed instruction
system.switch_cpus3.commit.committedInstType_0::FloatMisc            0      0.00%     57.87% # Class of committed instruction
system.switch_cpus3.commit.committedInstType_0::FloatSqrt            0      0.00%     57.87% # Class of committed instruction
system.switch_cpus3.commit.committedInstType_0::SimdAdd            0      0.00%     57.87% # Class of committed instruction
system.switch_cpus3.commit.committedInstType_0::SimdAddAcc            0      0.00%     57.87% # Class of committed instruction
system.switch_cpus3.commit.committedInstType_0::SimdAlu      4606662      2.28%     60.15% # Class of committed instruction
system.switch_cpus3.commit.committedInstType_0::SimdCmp            0      0.00%     60.15% # Class of committed instruction
system.switch_cpus3.commit.committedInstType_0::SimdCvt            0      0.00%     60.15% # Class of committed instruction
system.switch_cpus3.commit.committedInstType_0::SimdMisc      2508831      1.24%     61.39% # Class of committed instruction
system.switch_cpus3.commit.committedInstType_0::SimdMult            0      0.00%     61.39% # Class of committed instruction
system.switch_cpus3.commit.committedInstType_0::SimdMultAcc            0      0.00%     61.39% # Class of committed instruction
system.switch_cpus3.commit.committedInstType_0::SimdShift            0      0.00%     61.39% # Class of committed instruction
system.switch_cpus3.commit.committedInstType_0::SimdShiftAcc            0      0.00%     61.39% # Class of committed instruction
system.switch_cpus3.commit.committedInstType_0::SimdDiv            0      0.00%     61.39% # Class of committed instruction
system.switch_cpus3.commit.committedInstType_0::SimdSqrt            0      0.00%     61.39% # Class of committed instruction
system.switch_cpus3.commit.committedInstType_0::SimdFloatAdd     13356888      6.60%     67.99% # Class of committed instruction
system.switch_cpus3.commit.committedInstType_0::SimdFloatAlu            0      0.00%     67.99% # Class of committed instruction
system.switch_cpus3.commit.committedInstType_0::SimdFloatCmp       376832      0.19%     68.17% # Class of committed instruction
system.switch_cpus3.commit.committedInstType_0::SimdFloatCvt      3080192      1.52%     69.70% # Class of committed instruction
system.switch_cpus3.commit.committedInstType_0::SimdFloatDiv      2571255      1.27%     70.97% # Class of committed instruction
system.switch_cpus3.commit.committedInstType_0::SimdFloatMisc            0      0.00%     70.97% # Class of committed instruction
system.switch_cpus3.commit.committedInstType_0::SimdFloatMult     12850580      6.35%     77.32% # Class of committed instruction
system.switch_cpus3.commit.committedInstType_0::SimdFloatMultAcc            0      0.00%     77.32% # Class of committed instruction
system.switch_cpus3.commit.committedInstType_0::SimdFloatSqrt       409602      0.20%     77.52% # Class of committed instruction
system.switch_cpus3.commit.committedInstType_0::SimdReduceAdd            0      0.00%     77.52% # Class of committed instruction
system.switch_cpus3.commit.committedInstType_0::SimdReduceAlu            0      0.00%     77.52% # Class of committed instruction
system.switch_cpus3.commit.committedInstType_0::SimdReduceCmp            0      0.00%     77.52% # Class of committed instruction
system.switch_cpus3.commit.committedInstType_0::SimdFloatReduceAdd            0      0.00%     77.52% # Class of committed instruction
system.switch_cpus3.commit.committedInstType_0::SimdFloatReduceCmp            0      0.00%     77.52% # Class of committed instruction
system.switch_cpus3.commit.committedInstType_0::SimdAes            0      0.00%     77.52% # Class of committed instruction
system.switch_cpus3.commit.committedInstType_0::SimdAesMix            0      0.00%     77.52% # Class of committed instruction
system.switch_cpus3.commit.committedInstType_0::SimdSha1Hash            0      0.00%     77.52% # Class of committed instruction
system.switch_cpus3.commit.committedInstType_0::SimdSha1Hash2            0      0.00%     77.52% # Class of committed instruction
system.switch_cpus3.commit.committedInstType_0::SimdSha256Hash            0      0.00%     77.52% # Class of committed instruction
system.switch_cpus3.commit.committedInstType_0::SimdSha256Hash2            0      0.00%     77.52% # Class of committed instruction
system.switch_cpus3.commit.committedInstType_0::SimdShaSigma2            0      0.00%     77.52% # Class of committed instruction
system.switch_cpus3.commit.committedInstType_0::SimdShaSigma3            0      0.00%     77.52% # Class of committed instruction
system.switch_cpus3.commit.committedInstType_0::SimdPredAlu            0      0.00%     77.52% # Class of committed instruction
system.switch_cpus3.commit.committedInstType_0::MemRead     12327315      6.09%     83.61% # Class of committed instruction
system.switch_cpus3.commit.committedInstType_0::MemWrite      5924891      2.93%     86.54% # Class of committed instruction
system.switch_cpus3.commit.committedInstType_0::FloatMemRead     19782843      9.78%     96.31% # Class of committed instruction
system.switch_cpus3.commit.committedInstType_0::FloatMemWrite      7456997      3.69%    100.00% # Class of committed instruction
system.switch_cpus3.commit.committedInstType_0::IprAccess            0      0.00%    100.00% # Class of committed instruction
system.switch_cpus3.commit.committedInstType_0::InstPrefetch            0      0.00%    100.00% # Class of committed instruction
system.switch_cpus3.commit.committedInstType_0::total    202359590                       # Class of committed instruction
system.switch_cpus3.commit.commitEligibleSamples     20047147                       # number cycles where commit BW limit reached
system.switch_cpus3.decode.idleCycles         2081565                       # Number of cycles decode is idle
system.switch_cpus3.decode.blockedCycles     88255183                       # Number of cycles decode is blocked
system.switch_cpus3.decode.runCycles         27722193                       # Number of cycles decode is running
system.switch_cpus3.decode.unblockCycles      2554482                       # Number of cycles decode is unblocking
system.switch_cpus3.decode.squashCycles         11527                       # Number of cycles decode is squashing
system.switch_cpus3.decode.branchResolved      5871511                       # Number of times decode resolved a  branch
system.switch_cpus3.decode.branchMispred          107                       # Number of times decode detected a branch misprediction
system.switch_cpus3.decode.decodedInsts     202841908                       # Number of instructions handled by decode
system.switch_cpus3.decode.squashedInsts          535                       # Number of squashed instructions handled by decode
system.switch_cpus3.dtb.rdAccesses           32165647                       # TLB accesses on read requests
system.switch_cpus3.dtb.wrAccesses           13389694                       # TLB accesses on write requests
system.switch_cpus3.dtb.rdMisses                36091                       # TLB misses on read requests
system.switch_cpus3.dtb.wrMisses                 6865                       # TLB misses on write requests
system.switch_cpus3.dtb.walker.power_state.pwrStateResidencyTicks::UNDEFINED 15691438526661                       # Cumulative time (in ticks) in various power states
system.switch_cpus3.fetch.icacheStallCycles        40517                       # Number of cycles fetch is stalled on an Icache miss
system.switch_cpus3.fetch.insts             123859726                       # Number of instructions fetch has processed
system.switch_cpus3.fetch.branches           15012148                       # Number of branches that fetch encountered
system.switch_cpus3.fetch.predictedBranches      8394102                       # Number of branches that fetch has predicted taken
system.switch_cpus3.fetch.cycles            120572812                       # Number of cycles fetch has run and was not squashing or blocked
system.switch_cpus3.fetch.squashCycles          23264                       # Number of cycles fetch has spent squashing
system.switch_cpus3.fetch.cacheLines         15461760                       # Number of cache lines fetched
system.switch_cpus3.fetch.icacheSquashes          177                       # Number of outstanding Icache misses that were squashed
system.switch_cpus3.fetch.nisnDist::samples    120624961                       # Number of instructions fetched each cycle (Total)
system.switch_cpus3.fetch.nisnDist::mean     1.683684                       # Number of instructions fetched each cycle (Total)
system.switch_cpus3.fetch.nisnDist::stdev     3.047381                       # Number of instructions fetched each cycle (Total)
system.switch_cpus3.fetch.nisnDist::underflows            0      0.00%      0.00% # Number of instructions fetched each cycle (Total)
system.switch_cpus3.fetch.nisnDist::0        87065412     72.18%     72.18% # Number of instructions fetched each cycle (Total)
system.switch_cpus3.fetch.nisnDist::1         3753344      3.11%     75.29% # Number of instructions fetched each cycle (Total)
system.switch_cpus3.fetch.nisnDist::2         1115145      0.92%     76.21% # Number of instructions fetched each cycle (Total)
system.switch_cpus3.fetch.nisnDist::3         3986842      3.31%     79.52% # Number of instructions fetched each cycle (Total)
system.switch_cpus3.fetch.nisnDist::4         1004347      0.83%     80.35% # Number of instructions fetched each cycle (Total)
system.switch_cpus3.fetch.nisnDist::5         1655865      1.37%     81.73% # Number of instructions fetched each cycle (Total)
system.switch_cpus3.fetch.nisnDist::6         1117364      0.93%     82.65% # Number of instructions fetched each cycle (Total)
system.switch_cpus3.fetch.nisnDist::7         1263842      1.05%     83.70% # Number of instructions fetched each cycle (Total)
system.switch_cpus3.fetch.nisnDist::8        19662800     16.30%    100.00% # Number of instructions fetched each cycle (Total)
system.switch_cpus3.fetch.nisnDist::overflows            0      0.00%    100.00% # Number of instructions fetched each cycle (Total)
system.switch_cpus3.fetch.nisnDist::min_value            0                       # Number of instructions fetched each cycle (Total)
system.switch_cpus3.fetch.nisnDist::max_value            8                       # Number of instructions fetched each cycle (Total)
system.switch_cpus3.fetch.nisnDist::total    120624961                       # Number of instructions fetched each cycle (Total)
system.switch_cpus3.fetch.branchRate         0.124412                       # Number of branch fetches per cycle
system.switch_cpus3.fetch.rate               1.026476                       # Number of inst fetches per cycle
system.switch_cpus3.itb.rdAccesses                  0                       # TLB accesses on read requests
system.switch_cpus3.itb.wrAccesses           15461760                       # TLB accesses on write requests
system.switch_cpus3.itb.rdMisses                    0                       # TLB misses on read requests
system.switch_cpus3.itb.wrMisses                   21                       # TLB misses on write requests
system.switch_cpus3.itb.walker.power_state.pwrStateResidencyTicks::UNDEFINED 15691438526661                       # Cumulative time (in ticks) in various power states
system.switch_cpus3.lsq0.forwLoads            2281392                       # Number of loads that had data forwarded from stores
system.switch_cpus3.lsq0.squashedLoads          78099                       # Number of loads squashed
system.switch_cpus3.lsq0.ignoredResponses           33                       # Number of memory responses ignored because the instruction is squashed
system.switch_cpus3.lsq0.memOrderViolation          786                       # Number of memory ordering violations
system.switch_cpus3.lsq0.squashedStores         32210                       # Number of stores squashed
system.switch_cpus3.lsq0.rescheduledLoads            0                       # Number of loads that were rescheduled
system.switch_cpus3.lsq0.blockedByCache             4                       # Number of times an access to memory failed due to the cache being blocked
system.switch_cpus3.power_state.pwrStateResidencyTicks::OFF  40181449329                       # Cumulative time (in ticks) in various power states
system.switch_cpus3.rename.squashCycles         11527                       # Number of cycles rename is squashing
system.switch_cpus3.rename.idleCycles         3198015                       # Number of cycles rename is idle
system.switch_cpus3.rename.blockCycles       38106732                       # Number of cycles rename is blocking
system.switch_cpus3.rename.serializeStallCycles            0                       # count of cycles rename stalledfor serializing inst
system.switch_cpus3.rename.runCycles         29104854                       # Number of cycles rename is running
system.switch_cpus3.rename.unblockCycles     50203822                       # Number of cycles rename is unblocking
system.switch_cpus3.rename.renamedInsts     202761249                       # Number of instructions processed by rename
system.switch_cpus3.rename.ROBFullEvents      1199737                       # Number of times rename has blocked due to ROB full
system.switch_cpus3.rename.IQFullEvents       3029659                       # Number of times rename has blocked due to IQ full
system.switch_cpus3.rename.LQFullEvents      19292684                       # Number of times rename has blocked due to LQ full
system.switch_cpus3.rename.SQFullEvents      28205224                       # Number of times rename has blocked due to SQ full
system.switch_cpus3.rename.renamedOperands    223098846                       # Number of destination operands rename has renamed
system.switch_cpus3.rename.lookups          494345486                       # Number of register rename lookups that rename has made
system.switch_cpus3.rename.intLookups       199382431                       # Number of integer rename lookups
system.switch_cpus3.rename.fpLookups        146048129                       # Number of floating rename lookups
system.switch_cpus3.rename.committedMaps    222648925                       # Number of HB maps that are committed
system.switch_cpus3.rename.undoneMaps          449916                       # Number of HB maps that are undone due to squashing
system.switch_cpus3.rename.serializing              0                       # count of serializing insts renamed
system.switch_cpus3.rename.tempSerializing            0                       # count of temporary serializing insts renamed
system.switch_cpus3.rename.skidInsts         13716841                       # count of insts added to the skid buffer
system.switch_cpus3.rob.reads               303209956                       # The number of ROB reads
system.switch_cpus3.rob.writes              405402179                       # The number of ROB writes
system.switch_cpus3.thread0.numInsts        123329798                       # Number of Instructions committed
system.switch_cpus3.thread0.numOps          202359590                       # Number of Ops committed
system.switch_cpus3.thread0.numMemRefs              0                       # Number of Memory References
system.voltage_domain.voltage                       1                       # Voltage in Volts

---------- End Simulation Statistics   ----------
