Command line:
./runscript_pride.sh xz RFM2.BR2.4C 4 2017 --rh_defense --rh_mitigation=RFM --rh_rfm_per_trefi=2 --rh_rfm_blast_radius=2 --rh_rfm_maxacts_per_trefi=79
Global frequency set at 1000000000000 ticks per second
RFM details - rfm_act_threshold: 39, blast_radius: 2, delay_per_rfm: 175000 ps. sample_rate: 0.025000
RH Defense config: RFM, Bus Delay: 0, rfms_per_trefi: 2, rfm_act_threshold: 39, blast_radius: 2,rfm_delay_per_act: 45000 ps.
DRAM config: RowsPerBank: 65536, BanksPerRank: 32, RanksPerChannel: 1
warn: Sockets disabled, not accepting gdb connections
warn: CoherentXBar system.cpu0.mmucache.mmubus has no snooping ports attached!
warn: CoherentXBar system.cpu1.mmucache.mmubus has no snooping ports attached!
warn: CoherentXBar system.cpu2.mmucache.mmubus has no snooping ports attached!
warn: CoherentXBar system.cpu3.mmucache.mmubus has no snooping ports attached!
warn: Checkpoints for file descriptors currently do not work.
warn: Checkpoints for file descriptors currently do not work.
warn: Checkpoints for file descriptors currently do not work.
warn: Checkpoints for file descriptors currently do not work.
gem5 Simulator System.  http://gem5.org
gem5 is copyrighted software; use the --copyright option for details.

gem5 version 20.1.0.5
gem5 compiled Jul 12 2024 12:42:38
gem5 started Aug  1 2024 16:47:13
gem5 executing on a07dda8b130c, pid 250235
command line: /home/user/PrIDE/performance/gem5/build/X86/gem5.opt --outdir=/home/user/PrIDE/performance/gem5/stats/pride_multiprogram_16GBmem_250Mn.SPEC2017.C4/RFM2.BR2.4C/xz /home/user/PrIDE/performance/gem5/configs/example/se_rq_spec_config_multicore.py --redirects /lib64=/home/utils/gcc-6.2.0/lib64 --benchmark=xz --benchmark_stdout=/home/user/PrIDE/performance/gem5/stats/pride_multiprogram_16GBmem_250Mn.SPEC2017.C4/RFM2.BR2.4C/xz/xz.out --benchmark_stderr=/home/user/PrIDE/performance/gem5/stats/pride_multiprogram_16GBmem_250Mn.SPEC2017.C4/RFM2.BR2.4C/xz/xz.err --spec-version=2017 --rh_defense --rh_mitigation=RFM --rh_rfm_per_trefi=2 --rh_rfm_blast_radius=2 --rh_rfm_maxacts_per_trefi=79 --num-cpus=4 --mem-size=16GB --mem-type=DDR5_2400_32x4 --mem-ranks=1 --mem-channels=1 --checkpoint-dir=/home/user/PrIDE/performance/gem5/cpts-DDR5/multiprogram_16GBmem_25Bn.SPEC2017.C4/xz-1-ref-x86 --checkpoint-restore=25000000000 --at-instruction --cpu-type DerivO3CPU --caches --l2cache --l1d_size=32kB --l1i_size=32kB --l2_size=256kB --l3_size=4MB --l1d_assoc=8 --l1i_assoc=8 --l2_assoc=16 --l3_assoc=16 --cpu-clock=3GHz --sys-clock=3GHz --maxinsts=250000000 --prog-interval=300Hz

info: Standard input is not a terminal, disabling listeners.
Benchmark- 0   xz
Selected benchmark
--> xz
CMD: ['/opt/spec2017/benchspec/CPU/557.xz_r/run/run_base_refrate_gem5_se-m64.0000/xz_r_base.gem5_se-m64', '/opt/spec2017/benchspec/CPU/557.xz_r/run/run_base_refrate_gem5_se-m64.0000/cld.tar.xz', '160', '19cf30ae51eddcbefda78dd06014b4b96281456e078ca7c13e1c0c9e6aaea8dff3efb4ad6b0456697718cede6bd5454852652806a657bb56e07d61128434b474', '59796407', '61004416', '6']
CWD: /opt/spec2017/benchspec/CPU/557.xz_r/run/run_base_refrate_gem5_se-m64.0000/
Process stdout file: /home/user/PrIDE/performance/gem5/stats/pride_multiprogram_16GBmem_250Mn.SPEC2017.C4/RFM2.BR2.4C/xz/xz.out_0
Process stderr file: /home/user/PrIDE/performance/gem5/stats/pride_multiprogram_16GBmem_250Mn.SPEC2017.C4/RFM2.BR2.4C/xz/xz.err_0
Benchmark- 1   xz
Selected benchmark
--> xz
CMD: ['/opt/spec2017/benchspec/CPU/557.xz_r/run/run_base_refrate_gem5_se-m64.0000/xz_r_base.gem5_se-m64', '/opt/spec2017/benchspec/CPU/557.xz_r/run/run_base_refrate_gem5_se-m64.0000/cld.tar.xz', '160', '19cf30ae51eddcbefda78dd06014b4b96281456e078ca7c13e1c0c9e6aaea8dff3efb4ad6b0456697718cede6bd5454852652806a657bb56e07d61128434b474', '59796407', '61004416', '6']
CWD: /opt/spec2017/benchspec/CPU/557.xz_r/run/run_base_refrate_gem5_se-m64.0000/
Process stdout file: /home/user/PrIDE/performance/gem5/stats/pride_multiprogram_16GBmem_250Mn.SPEC2017.C4/RFM2.BR2.4C/xz/xz.out_1
Process stderr file: /home/user/PrIDE/performance/gem5/stats/pride_multiprogram_16GBmem_250Mn.SPEC2017.C4/RFM2.BR2.4C/xz/xz.err_1
Benchmark- 2   xz
Selected benchmark
--> xz
CMD: ['/opt/spec2017/benchspec/CPU/557.xz_r/run/run_base_refrate_gem5_se-m64.0000/xz_r_base.gem5_se-m64', '/opt/spec2017/benchspec/CPU/557.xz_r/run/run_base_refrate_gem5_se-m64.0000/cld.tar.xz', '160', '19cf30ae51eddcbefda78dd06014b4b96281456e078ca7c13e1c0c9e6aaea8dff3efb4ad6b0456697718cede6bd5454852652806a657bb56e07d61128434b474', '59796407', '61004416', '6']
CWD: /opt/spec2017/benchspec/CPU/557.xz_r/run/run_base_refrate_gem5_se-m64.0000/
Process stdout file: /home/user/PrIDE/performance/gem5/stats/pride_multiprogram_16GBmem_250Mn.SPEC2017.C4/RFM2.BR2.4C/xz/xz.out_2
Process stderr file: /home/user/PrIDE/performance/gem5/stats/pride_multiprogram_16GBmem_250Mn.SPEC2017.C4/RFM2.BR2.4C/xz/xz.err_2
Benchmark- 3   xz
Selected benchmark
--> xz
CMD: ['/opt/spec2017/benchspec/CPU/557.xz_r/run/run_base_refrate_gem5_se-m64.0000/xz_r_base.gem5_se-m64', '/opt/spec2017/benchspec/CPU/557.xz_r/run/run_base_refrate_gem5_se-m64.0000/cld.tar.xz', '160', '19cf30ae51eddcbefda78dd06014b4b96281456e078ca7c13e1c0c9e6aaea8dff3efb4ad6b0456697718cede6bd5454852652806a657bb56e07d61128434b474', '59796407', '61004416', '6']
CWD: /opt/spec2017/benchspec/CPU/557.xz_r/run/run_base_refrate_gem5_se-m64.0000/
Process stdout file: /home/user/PrIDE/performance/gem5/stats/pride_multiprogram_16GBmem_250Mn.SPEC2017.C4/RFM2.BR2.4C/xz/xz.out_3
Process stderr file: /home/user/PrIDE/performance/gem5/stats/pride_multiprogram_16GBmem_250Mn.SPEC2017.C4/RFM2.BR2.4C/xz/xz.err_3
Workload-0: 
['/opt/spec2017/benchspec/CPU/557.xz_r/run/run_base_refrate_gem5_se-m64.0000/xz_r_base.gem5_se-m64', '/opt/spec2017/benchspec/CPU/557.xz_r/run/run_base_refrate_gem5_se-m64.0000/cld.tar.xz', '160', '19cf30ae51eddcbefda78dd06014b4b96281456e078ca7c13e1c0c9e6aaea8dff3efb4ad6b0456697718cede6bd5454852652806a657bb56e07d61128434b474', '59796407', '61004416', '6']
Workload-1: 
['/opt/spec2017/benchspec/CPU/557.xz_r/run/run_base_refrate_gem5_se-m64.0000/xz_r_base.gem5_se-m64', '/opt/spec2017/benchspec/CPU/557.xz_r/run/run_base_refrate_gem5_se-m64.0000/cld.tar.xz', '160', '19cf30ae51eddcbefda78dd06014b4b96281456e078ca7c13e1c0c9e6aaea8dff3efb4ad6b0456697718cede6bd5454852652806a657bb56e07d61128434b474', '59796407', '61004416', '6']
Workload-2: 
['/opt/spec2017/benchspec/CPU/557.xz_r/run/run_base_refrate_gem5_se-m64.0000/xz_r_base.gem5_se-m64', '/opt/spec2017/benchspec/CPU/557.xz_r/run/run_base_refrate_gem5_se-m64.0000/cld.tar.xz', '160', '19cf30ae51eddcbefda78dd06014b4b96281456e078ca7c13e1c0c9e6aaea8dff3efb4ad6b0456697718cede6bd5454852652806a657bb56e07d61128434b474', '59796407', '61004416', '6']
Workload-3: 
['/opt/spec2017/benchspec/CPU/557.xz_r/run/run_base_refrate_gem5_se-m64.0000/xz_r_base.gem5_se-m64', '/opt/spec2017/benchspec/CPU/557.xz_r/run/run_base_refrate_gem5_se-m64.0000/cld.tar.xz', '160', '19cf30ae51eddcbefda78dd06014b4b96281456e078ca7c13e1c0c9e6aaea8dff3efb4ad6b0456697718cede6bd5454852652806a657bb56e07d61128434b474', '59796407', '61004416', '6']
defense_enable:  True  detector:  MG  mitigation:  RFM  threshold:  800
mg_entries:  1700
rfm_maxacts_per_trefi:  79 rfm_per_trefi:  2 rfm_blast_radius:  2
Switch at curTick count:10000
warn: membus.master is deprecated. `master` is now called `mem_side_ports`
warn: No dot file generated. Please install pydot to generate the dot file and pdf.
info: Entering event queue @ 14950446118803.  Starting simulation...
warn: MOVNTDQ: Ignoring non-temporal hint, modeling as cacheable!
warn: PowerState: Already in the requested power state, request ignored
Switched CPUS @ tick 14950446128803
switching cpus
**** REAL SIMULATION ****
info: Entering event queue @ 14950446128803.  Starting simulation...
14953779452136: Event_285: system.switch_cpus3 progress event, total committed:16318918, progress insts committed: 16318918, IPC: 01.63026
14953779452136: Event_284: system.switch_cpus2 progress event, total committed:16318921, progress insts committed: 16318921, IPC: 01.63026
14953779452136: Event_283: system.switch_cpus1 progress event, total committed:16319878, progress insts committed: 16319878, IPC: 01.63036
14953779452136: Event_282: system.switch_cpus0 progress event, total committed:16319878, progress insts committed: 16319878, IPC: 01.63036
14957112785469: Event_282: system.switch_cpus0 progress event, total committed:32980936, progress insts committed: 16661058, IPC: 01.66444
14957112785469: Event_283: system.switch_cpus1 progress event, total committed:32980895, progress insts committed: 16661017, IPC: 01.66444
14957112785469: Event_284: system.switch_cpus2 progress event, total committed:32944427, progress insts committed: 16625506, IPC: 01.66089
14957112785469: Event_285: system.switch_cpus3 progress event, total committed:32944423, progress insts committed: 16625505, IPC: 01.66089
14960446118802: Event_285: system.switch_cpus3 progress event, total committed:49664484, progress insts committed: 16720061, IPC: 01.67033
14960446118802: Event_284: system.switch_cpus2 progress event, total committed:49664512, progress insts committed: 16720085, IPC: 01.67034
14960446118802: Event_283: system.switch_cpus1 progress event, total committed:49726887, progress insts committed: 16745992, IPC: 01.67292
14960446118802: Event_282: system.switch_cpus0 progress event, total committed:49726901, progress insts committed: 16745965, IPC: 01.67292
14963779452135: Event_282: system.switch_cpus0 progress event, total committed:66410883, progress insts committed: 16683982, IPC: 01.66673
14963779452135: Event_283: system.switch_cpus1 progress event, total committed:66410923, progress insts committed: 16684036, IPC: 01.66674
14963779452135: Event_284: system.switch_cpus2 progress event, total committed:66327000, progress insts committed: 16662488, IPC: 01.66458
14963779452135: Event_285: system.switch_cpus3 progress event, total committed:66327000, progress insts committed: 16662516, IPC: 01.66459
14967112785468: Event_285: system.switch_cpus3 progress event, total committed:82915868, progress insts committed: 16588868, IPC: 01.65723
14967112785468: Event_284: system.switch_cpus2 progress event, total committed:82915868, progress insts committed: 16588868, IPC: 01.65723
14967112785468: Event_283: system.switch_cpus1 progress event, total committed:82919267, progress insts committed: 16508344, IPC: 01.64918
14967112785468: Event_282: system.switch_cpus0 progress event, total committed:82919234, progress insts committed: 16508351, IPC: 01.64918
14970446118801: Event_282: system.switch_cpus0 progress event, total committed:99543490, progress insts committed: 16624256, IPC: 01.66076
14970446118801: Event_283: system.switch_cpus1 progress event, total committed:99543524, progress insts committed: 16624257, IPC: 01.66076
14970446118801: Event_284: system.switch_cpus2 progress event, total committed:99462872, progress insts committed: 16547004, IPC: 01.65305
14970446118801: Event_285: system.switch_cpus3 progress event, total committed:99461044, progress insts committed: 16545176, IPC: 01.65286
14973779452134: Event_285: system.switch_cpus3 progress event, total committed:115840945, progress insts committed: 16379901, IPC: 01.63635
14973779452134: Event_284: system.switch_cpus2 progress event, total committed:115840910, progress insts committed: 16378038, IPC: 01.63617
14973779452134: Event_283: system.switch_cpus1 progress event, total committed:115954660, progress insts committed: 16411136, IPC: 01.63947
14973779452134: Event_282: system.switch_cpus0 progress event, total committed:115954695, progress insts committed: 16411205, IPC: 01.63948
14977112785467: Event_282: system.switch_cpus0 progress event, total committed:132354387, progress insts committed: 16399692, IPC: 01.63833
14977112785467: Event_283: system.switch_cpus1 progress event, total committed:132354387, progress insts committed: 16399727, IPC: 01.63833
14977112785467: Event_284: system.switch_cpus2 progress event, total committed:132251901, progress insts committed: 16410991, IPC: 01.63946
14977112785467: Event_285: system.switch_cpus3 progress event, total committed:132251877, progress insts committed: 16410932, IPC: 01.63945
14980446118800: Event_285: system.switch_cpus3 progress event, total committed:148643266, progress insts committed: 16391389, IPC: 001.6375
14980446118800: Event_284: system.switch_cpus2 progress event, total committed:148643223, progress insts committed: 16391322, IPC: 01.63749
14980446118800: Event_283: system.switch_cpus1 progress event, total committed:148758789, progress insts committed: 16404402, IPC: 001.6388
14980446118800: Event_282: system.switch_cpus0 progress event, total committed:148758800, progress insts committed: 16404413, IPC: 001.6388
14983779452133: Event_282: system.switch_cpus0 progress event, total committed:165134844, progress insts committed: 16376044, IPC: 01.63597
14983779452133: Event_283: system.switch_cpus1 progress event, total committed:165134877, progress insts committed: 16376088, IPC: 01.63597
14983779452133: Event_284: system.switch_cpus2 progress event, total committed:165053086, progress insts committed: 16409863, IPC: 01.63935
14983779452133: Event_285: system.switch_cpus3 progress event, total committed:165053031, progress insts committed: 16409765, IPC: 01.63934
14987112785466: Event_285: system.switch_cpus3 progress event, total committed:181479161, progress insts committed: 16426130, IPC: 01.64097
14987112785466: Event_284: system.switch_cpus2 progress event, total committed:181479192, progress insts committed: 16426106, IPC: 01.64097
14987112785466: Event_283: system.switch_cpus1 progress event, total committed:181582365, progress insts committed: 16447488, IPC: 001.6431
14987112785466: Event_282: system.switch_cpus0 progress event, total committed:181582384, progress insts committed: 16447540, IPC: 01.64311
14990446118799: Event_282: system.switch_cpus0 progress event, total committed:198006235, progress insts committed: 16423851, IPC: 01.64074
14990446118799: Event_283: system.switch_cpus1 progress event, total committed:198006218, progress insts committed: 16423853, IPC: 01.64074
14990446118799: Event_284: system.switch_cpus2 progress event, total committed:197906116, progress insts committed: 16426924, IPC: 01.64105
14990446118799: Event_285: system.switch_cpus3 progress event, total committed:197906068, progress insts committed: 16426907, IPC: 01.64105
14993779452132: Event_285: system.switch_cpus3 progress event, total committed:214415367, progress insts committed: 16509299, IPC: 01.64928
14993779452132: Event_284: system.switch_cpus2 progress event, total committed:214415285, progress insts committed: 16509169, IPC: 01.64927
14993779452132: Event_283: system.switch_cpus1 progress event, total committed:214524196, progress insts committed: 16517978, IPC: 01.65015
14993779452132: Event_282: system.switch_cpus0 progress event, total committed:214524136, progress insts committed: 16517901, IPC: 01.65014
14997112785465: Event_282: system.switch_cpus0 progress event, total committed:230963692, progress insts committed: 16439556, IPC: 01.64231
14997112785465: Event_283: system.switch_cpus1 progress event, total committed:230963646, progress insts committed: 16439450, IPC: 001.6423
14997112785465: Event_284: system.switch_cpus2 progress event, total committed:230838796, progress insts committed: 16423511, IPC: 01.64071
14997112785465: Event_285: system.switch_cpus3 progress event, total committed:230825425, progress insts committed: 16410058, IPC: 01.63936
15000446118798: Event_285: system.switch_cpus3 progress event, total committed:247397475, progress insts committed: 16572050, IPC: 01.65555
15000446118798: Event_284: system.switch_cpus2 progress event, total committed:247397475, progress insts committed: 16558679, IPC: 01.65421
15000446118798: Event_283: system.switch_cpus1 progress event, total committed:247437393, progress insts committed: 16473747, IPC: 01.64573
15000446118798: Event_282: system.switch_cpus0 progress event, total committed:247437417, progress insts committed: 16473725, IPC: 01.64573
15003779452131: Event_282: system.switch_cpus0 progress event, total committed:263892507, progress insts committed: 16455090, IPC: 01.64386
15003779452131: Event_283: system.switch_cpus1 progress event, total committed:263892528, progress insts committed: 16455135, IPC: 01.64387
15003779452131: Event_284: system.switch_cpus2 progress event, total committed:263804974, progress insts committed: 16407499, IPC: 01.63911
15003779452131: Event_285: system.switch_cpus3 progress event, total committed:263804974, progress insts committed: 16407499, IPC: 01.63911
15007112785464: Event_285: system.switch_cpus3 progress event, total committed:280182930, progress insts committed: 16377956, IPC: 01.63616
15007112785464: Event_284: system.switch_cpus2 progress event, total committed:280182930, progress insts committed: 16377956, IPC: 01.63616
15007112785464: Event_283: system.switch_cpus1 progress event, total committed:280317742, progress insts committed: 16425214, IPC: 01.64088
15007112785464: Event_282: system.switch_cpus0 progress event, total committed:280317710, progress insts committed: 16425203, IPC: 01.64088
15010446118797: Event_282: system.switch_cpus0 progress event, total committed:296876153, progress insts committed: 16558443, IPC: 01.65419
15010446118797: Event_283: system.switch_cpus1 progress event, total committed:296872801, progress insts committed: 16555059, IPC: 01.65385
15010446118797: Event_284: system.switch_cpus2 progress event, total committed:296689893, progress insts committed: 16506963, IPC: 01.64905
15010446118797: Event_285: system.switch_cpus3 progress event, total committed:296689803, progress insts committed: 16506873, IPC: 01.64904
15013779452130: Event_285: system.switch_cpus3 progress event, total committed:313241448, progress insts committed: 16551645, IPC: 01.65351
15013779452130: Event_284: system.switch_cpus2 progress event, total committed:313241503, progress insts committed: 16551610, IPC: 01.65351
15013779452130: Event_283: system.switch_cpus1 progress event, total committed:313391278, progress insts committed: 16518477, IPC: 001.6502
15013779452130: Event_282: system.switch_cpus0 progress event, total committed:313391278, progress insts committed: 16515125, IPC: 01.64986
15017112785463: Event_282: system.switch_cpus0 progress event, total committed:329895257, progress insts committed: 16503979, IPC: 01.64875
15017112785463: Event_283: system.switch_cpus1 progress event, total committed:329895274, progress insts committed: 16503996, IPC: 01.64875
15017112785463: Event_284: system.switch_cpus2 progress event, total committed:329708625, progress insts committed: 16467122, IPC: 01.64507
15017112785463: Event_285: system.switch_cpus3 progress event, total committed:329708625, progress insts committed: 16467177, IPC: 01.64507
15020446118796: Event_285: system.switch_cpus3 progress event, total committed:346208164, progress insts committed: 16499539, IPC: 001.6483
15020446118796: Event_284: system.switch_cpus2 progress event, total committed:346208160, progress insts committed: 16499535, IPC: 001.6483
15020446118796: Event_283: system.switch_cpus1 progress event, total committed:346405000, progress insts committed: 16509726, IPC: 01.64932
15020446118796: Event_282: system.switch_cpus0 progress event, total committed:346405028, progress insts committed: 16509771, IPC: 01.64933
Exiting @ tick 15023770806717 because a thread reached the max instruction count
