Command line:
./runscript_pride.sh xz RFM10.BR2.4C 4 2017 --rh_defense --rh_mitigation=RFM --rh_rfm_per_trefi=10 --rh_rfm_blast_radius=2 --rh_rfm_maxacts_per_trefi=79
Global frequency set at 1000000000000 ticks per second
RFM details - rfm_act_threshold: 7, blast_radius: 2, delay_per_rfm: 175000 ps. sample_rate: 0.125000
RH Defense config: RFM, Bus Delay: 0, rfms_per_trefi: 10, rfm_act_threshold: 7, blast_radius: 2,rfm_delay_per_act: 45000 ps.
DRAM config: RowsPerBank: 65536, BanksPerRank: 32, RanksPerChannel: 1
warn: Sockets disabled, not accepting gdb connections
warn: CoherentXBar system.cpu0.mmucache.mmubus has no snooping ports attached!
warn: CoherentXBar system.cpu1.mmucache.mmubus has no snooping ports attached!
warn: CoherentXBar system.cpu2.mmucache.mmubus has no snooping ports attached!
warn: CoherentXBar system.cpu3.mmucache.mmubus has no snooping ports attached!
warn: Checkpoints for file descriptors currently do not work.
warn: Checkpoints for file descriptors currently do not work.
warn: Checkpoints for file descriptors currently do not work.
warn: Checkpoints for file descriptors currently do not work.
gem5 Simulator System.  http://gem5.org
gem5 is copyrighted software; use the --copyright option for details.

gem5 version 20.1.0.5
gem5 compiled Jul 12 2024 12:42:38
gem5 started Jul 22 2024 18:39:37
gem5 executing on a07dda8b130c, pid 89890
command line: /home/user/PrIDE/performance/gem5/build/X86/gem5.opt --outdir=/home/user/PrIDE/performance/gem5/stats/pride_multiprogram_16GBmem_250Mn.SPEC2017.C4/RFM10.BR2.4C/xz /home/user/PrIDE/performance/gem5/configs/example/se_rq_spec_config_multicore.py --redirects /lib64=/home/utils/gcc-6.2.0/lib64 --benchmark=xz --benchmark_stdout=/home/user/PrIDE/performance/gem5/stats/pride_multiprogram_16GBmem_250Mn.SPEC2017.C4/RFM10.BR2.4C/xz/xz.out --benchmark_stderr=/home/user/PrIDE/performance/gem5/stats/pride_multiprogram_16GBmem_250Mn.SPEC2017.C4/RFM10.BR2.4C/xz/xz.err --spec-version=2017 --rh_defense --rh_mitigation=RFM --rh_rfm_per_trefi=10 --rh_rfm_blast_radius=2 --rh_rfm_maxacts_per_trefi=79 --num-cpus=4 --mem-size=16GB --mem-type=DDR5_2400_32x4 --mem-ranks=1 --checkpoint-dir=/home/user/PrIDE/performance/gem5/cpts/multiprogram_16GBmem_25Bn.SPEC2017.C4/xz-1-ref-x86 --checkpoint-restore=25000000000 --at-instruction --cpu-type DerivO3CPU --caches --l2cache --l1d_size=32kB --l1i_size=32kB --l2_size=256kB --l1d_assoc=8 --l1i_assoc=8 --l2_assoc=16 --maxinsts=250000000 --prog-interval=300Hz

info: Standard input is not a terminal, disabling listeners.
Benchmark- 0   xz
Selected benchmark
--> xz
CMD: ['/opt/spec2017/benchspec/CPU/557.xz_r/run/run_base_refrate_gem5_se-m64.0000/xz_r_base.gem5_se-m64', '/opt/spec2017/benchspec/CPU/557.xz_r/run/run_base_refrate_gem5_se-m64.0000/cld.tar.xz', '160', '19cf30ae51eddcbefda78dd06014b4b96281456e078ca7c13e1c0c9e6aaea8dff3efb4ad6b0456697718cede6bd5454852652806a657bb56e07d61128434b474', '59796407', '61004416', '6']
CWD: /opt/spec2017/benchspec/CPU/557.xz_r/run/run_base_refrate_gem5_se-m64.0000/
Process stdout file: /home/user/PrIDE/performance/gem5/stats/pride_multiprogram_16GBmem_250Mn.SPEC2017.C4/RFM10.BR2.4C/xz/xz.out_0
Process stderr file: /home/user/PrIDE/performance/gem5/stats/pride_multiprogram_16GBmem_250Mn.SPEC2017.C4/RFM10.BR2.4C/xz/xz.err_0
Benchmark- 1   xz
Selected benchmark
--> xz
CMD: ['/opt/spec2017/benchspec/CPU/557.xz_r/run/run_base_refrate_gem5_se-m64.0000/xz_r_base.gem5_se-m64', '/opt/spec2017/benchspec/CPU/557.xz_r/run/run_base_refrate_gem5_se-m64.0000/cld.tar.xz', '160', '19cf30ae51eddcbefda78dd06014b4b96281456e078ca7c13e1c0c9e6aaea8dff3efb4ad6b0456697718cede6bd5454852652806a657bb56e07d61128434b474', '59796407', '61004416', '6']
CWD: /opt/spec2017/benchspec/CPU/557.xz_r/run/run_base_refrate_gem5_se-m64.0000/
Process stdout file: /home/user/PrIDE/performance/gem5/stats/pride_multiprogram_16GBmem_250Mn.SPEC2017.C4/RFM10.BR2.4C/xz/xz.out_1
Process stderr file: /home/user/PrIDE/performance/gem5/stats/pride_multiprogram_16GBmem_250Mn.SPEC2017.C4/RFM10.BR2.4C/xz/xz.err_1
Benchmark- 2   xz
Selected benchmark
--> xz
CMD: ['/opt/spec2017/benchspec/CPU/557.xz_r/run/run_base_refrate_gem5_se-m64.0000/xz_r_base.gem5_se-m64', '/opt/spec2017/benchspec/CPU/557.xz_r/run/run_base_refrate_gem5_se-m64.0000/cld.tar.xz', '160', '19cf30ae51eddcbefda78dd06014b4b96281456e078ca7c13e1c0c9e6aaea8dff3efb4ad6b0456697718cede6bd5454852652806a657bb56e07d61128434b474', '59796407', '61004416', '6']
CWD: /opt/spec2017/benchspec/CPU/557.xz_r/run/run_base_refrate_gem5_se-m64.0000/
Process stdout file: /home/user/PrIDE/performance/gem5/stats/pride_multiprogram_16GBmem_250Mn.SPEC2017.C4/RFM10.BR2.4C/xz/xz.out_2
Process stderr file: /home/user/PrIDE/performance/gem5/stats/pride_multiprogram_16GBmem_250Mn.SPEC2017.C4/RFM10.BR2.4C/xz/xz.err_2
Benchmark- 3   xz
Selected benchmark
--> xz
CMD: ['/opt/spec2017/benchspec/CPU/557.xz_r/run/run_base_refrate_gem5_se-m64.0000/xz_r_base.gem5_se-m64', '/opt/spec2017/benchspec/CPU/557.xz_r/run/run_base_refrate_gem5_se-m64.0000/cld.tar.xz', '160', '19cf30ae51eddcbefda78dd06014b4b96281456e078ca7c13e1c0c9e6aaea8dff3efb4ad6b0456697718cede6bd5454852652806a657bb56e07d61128434b474', '59796407', '61004416', '6']
CWD: /opt/spec2017/benchspec/CPU/557.xz_r/run/run_base_refrate_gem5_se-m64.0000/
Process stdout file: /home/user/PrIDE/performance/gem5/stats/pride_multiprogram_16GBmem_250Mn.SPEC2017.C4/RFM10.BR2.4C/xz/xz.out_3
Process stderr file: /home/user/PrIDE/performance/gem5/stats/pride_multiprogram_16GBmem_250Mn.SPEC2017.C4/RFM10.BR2.4C/xz/xz.err_3
Workload-0: 
['/opt/spec2017/benchspec/CPU/557.xz_r/run/run_base_refrate_gem5_se-m64.0000/xz_r_base.gem5_se-m64', '/opt/spec2017/benchspec/CPU/557.xz_r/run/run_base_refrate_gem5_se-m64.0000/cld.tar.xz', '160', '19cf30ae51eddcbefda78dd06014b4b96281456e078ca7c13e1c0c9e6aaea8dff3efb4ad6b0456697718cede6bd5454852652806a657bb56e07d61128434b474', '59796407', '61004416', '6']
Workload-1: 
['/opt/spec2017/benchspec/CPU/557.xz_r/run/run_base_refrate_gem5_se-m64.0000/xz_r_base.gem5_se-m64', '/opt/spec2017/benchspec/CPU/557.xz_r/run/run_base_refrate_gem5_se-m64.0000/cld.tar.xz', '160', '19cf30ae51eddcbefda78dd06014b4b96281456e078ca7c13e1c0c9e6aaea8dff3efb4ad6b0456697718cede6bd5454852652806a657bb56e07d61128434b474', '59796407', '61004416', '6']
Workload-2: 
['/opt/spec2017/benchspec/CPU/557.xz_r/run/run_base_refrate_gem5_se-m64.0000/xz_r_base.gem5_se-m64', '/opt/spec2017/benchspec/CPU/557.xz_r/run/run_base_refrate_gem5_se-m64.0000/cld.tar.xz', '160', '19cf30ae51eddcbefda78dd06014b4b96281456e078ca7c13e1c0c9e6aaea8dff3efb4ad6b0456697718cede6bd5454852652806a657bb56e07d61128434b474', '59796407', '61004416', '6']
Workload-3: 
['/opt/spec2017/benchspec/CPU/557.xz_r/run/run_base_refrate_gem5_se-m64.0000/xz_r_base.gem5_se-m64', '/opt/spec2017/benchspec/CPU/557.xz_r/run/run_base_refrate_gem5_se-m64.0000/cld.tar.xz', '160', '19cf30ae51eddcbefda78dd06014b4b96281456e078ca7c13e1c0c9e6aaea8dff3efb4ad6b0456697718cede6bd5454852652806a657bb56e07d61128434b474', '59796407', '61004416', '6']
defense_enable:  True  detector:  MG  mitigation:  RFM  threshold:  800
mg_entries:  1700
rfm_maxacts_per_trefi:  79 rfm_per_trefi:  10 rfm_blast_radius:  2
Switch at curTick count:10000
warn: membus.master is deprecated. `master` is now called `mem_side_ports`
warn: No dot file generated. Please install pydot to generate the dot file and pdf.
info: Entering event queue @ 14950446181740.  Starting simulation...
warn: MOVNTDQ: Ignoring non-temporal hint, modeling as cacheable!
info: Entering event queue @ 14950446191740.  Starting simulation...
warn: PowerState: Already in the requested power state, request ignored
Switched CPUS @ tick 14950446191740
switching cpus
**** REAL SIMULATION ****
info: Entering event queue @ 14950446192063.  Starting simulation...
14953779515073: Event_285: system.switch_cpus3 progress event, total committed:16317855, progress insts committed: 16317855, IPC: 01.63015
14953779515073: Event_284: system.switch_cpus2 progress event, total committed:16317882, progress insts committed: 16317882, IPC: 01.63016
14953779515073: Event_283: system.switch_cpus1 progress event, total committed:16317885, progress insts committed: 16317885, IPC: 01.63016
14953779515073: Event_282: system.switch_cpus0 progress event, total committed:16317885, progress insts committed: 16317885, IPC: 01.63016
14957112848406: Event_282: system.switch_cpus0 progress event, total committed:32943915, progress insts committed: 16626030, IPC: 01.66094
14957112848406: Event_283: system.switch_cpus1 progress event, total committed:32943852, progress insts committed: 16625967, IPC: 01.66093
14957112848406: Event_284: system.switch_cpus2 progress event, total committed:32943856, progress insts committed: 16625974, IPC: 01.66093
14957112848406: Event_285: system.switch_cpus3 progress event, total committed:32943848, progress insts committed: 16625993, IPC: 01.66094
14960446181739: Event_285: system.switch_cpus3 progress event, total committed:49643624, progress insts committed: 16699776, IPC: 01.66831
14960446181739: Event_284: system.switch_cpus2 progress event, total committed:49643593, progress insts committed: 16699737, IPC: 001.6683
14960446181739: Event_283: system.switch_cpus1 progress event, total committed:49643714, progress insts committed: 16699862, IPC: 01.66832
14960446181739: Event_282: system.switch_cpus0 progress event, total committed:49663941, progress insts committed: 16720026, IPC: 01.67033
14963779515072: Event_282: system.switch_cpus0 progress event, total committed:66386430, progress insts committed: 16722489, IPC: 01.67058
14963779515072: Event_283: system.switch_cpus1 progress event, total committed:66332274, progress insts committed: 16688560, IPC: 01.66719
14963779515072: Event_284: system.switch_cpus2 progress event, total committed:66297771, progress insts committed: 16654178, IPC: 01.66375
14963779515072: Event_285: system.switch_cpus3 progress event, total committed:66297733, progress insts committed: 16654109, IPC: 01.66375
14967112848405: Event_285: system.switch_cpus3 progress event, total committed:82881480, progress insts committed: 16583747, IPC: 01.65672
14967112848405: Event_284: system.switch_cpus2 progress event, total committed:82881452, progress insts committed: 16583681, IPC: 01.65671
14967112848405: Event_283: system.switch_cpus1 progress event, total committed:82916452, progress insts committed: 16584178, IPC: 01.65676
14967112848405: Event_282: system.switch_cpus0 progress event, total committed:82970417, progress insts committed: 16583987, IPC: 01.65674
14970446181738: Event_282: system.switch_cpus0 progress event, total committed:99695943, progress insts committed: 16725526, IPC: 01.67088
14970446181738: Event_283: system.switch_cpus1 progress event, total committed:99551251, progress insts committed: 16634799, IPC: 01.66182
14970446181738: Event_284: system.switch_cpus2 progress event, total committed:99416992, progress insts committed: 16535540, IPC: 001.6519
14970446181738: Event_285: system.switch_cpus3 progress event, total committed:99416962, progress insts committed: 16535482, IPC: 01.65189
14973779515071: Event_285: system.switch_cpus3 progress event, total committed:115784687, progress insts committed: 16367725, IPC: 01.63514
14973779515071: Event_284: system.switch_cpus2 progress event, total committed:115784667, progress insts committed: 16367675, IPC: 01.63513
14973779515071: Event_283: system.switch_cpus1 progress event, total committed:115972825, progress insts committed: 16421574, IPC: 01.64052
14973779515071: Event_282: system.switch_cpus0 progress event, total committed:116147451, progress insts committed: 16451508, IPC: 01.64351
14977112848404: Event_282: system.switch_cpus0 progress event, total committed:132624973, progress insts committed: 16477522, IPC: 001.6461
14977112848404: Event_283: system.switch_cpus1 progress event, total committed:132445676, progress insts committed: 16472851, IPC: 01.64564
14977112848404: Event_284: system.switch_cpus2 progress event, total committed:132185195, progress insts committed: 16400528, IPC: 01.63841
14977112848404: Event_285: system.switch_cpus3 progress event, total committed:132185191, progress insts committed: 16400504, IPC: 01.63841
14980446181737: Event_285: system.switch_cpus3 progress event, total committed:148550745, progress insts committed: 16365554, IPC: 01.63492
14980446181737: Event_284: system.switch_cpus2 progress event, total committed:148550666, progress insts committed: 16365471, IPC: 01.63491
14980446181737: Event_283: system.switch_cpus1 progress event, total committed:148882139, progress insts committed: 16436463, IPC: 0001.642
14980446181737: Event_282: system.switch_cpus0 progress event, total committed:149093790, progress insts committed: 16468817, IPC: 01.64523
14983779515070: Event_282: system.switch_cpus0 progress event, total committed:165552230, progress insts committed: 16458440, IPC: 001.6442
14983779515070: Event_283: system.switch_cpus1 progress event, total committed:165320610, progress insts committed: 16438471, IPC: 001.6422
14983779515070: Event_284: system.switch_cpus2 progress event, total committed:164949180, progress insts committed: 16398514, IPC: 01.63821
14983779515070: Event_285: system.switch_cpus3 progress event, total committed:164949162, progress insts committed: 16398417, IPC: 001.6382
14987112848403: Event_285: system.switch_cpus3 progress event, total committed:181366987, progress insts committed: 16417825, IPC: 01.64014
14987112848403: Event_284: system.switch_cpus2 progress event, total committed:181367020, progress insts committed: 16417840, IPC: 01.64014
14987112848403: Event_283: system.switch_cpus1 progress event, total committed:181797703, progress insts committed: 16477093, IPC: 01.64606
14987112848403: Event_282: system.switch_cpus0 progress event, total committed:182045616, progress insts committed: 16493386, IPC: 01.64769
14990446181736: Event_282: system.switch_cpus0 progress event, total committed:198482061, progress insts committed: 16436445, IPC: 0001.642
14990446181736: Event_283: system.switch_cpus1 progress event, total committed:198272281, progress insts committed: 16474578, IPC: 01.64581
14990446181736: Event_284: system.switch_cpus2 progress event, total committed:197790964, progress insts committed: 16423944, IPC: 01.64075
14990446181736: Event_285: system.switch_cpus3 progress event, total committed:197790964, progress insts committed: 16423977, IPC: 01.64076
14993779515069: Event_285: system.switch_cpus3 progress event, total committed:214236334, progress insts committed: 16445370, IPC: 01.64289
14993779515069: Event_284: system.switch_cpus2 progress event, total committed:214234538, progress insts committed: 16443574, IPC: 01.64271
14993779515069: Event_283: system.switch_cpus1 progress event, total committed:214826737, progress insts committed: 16554456, IPC: 01.65379
14993779515069: Event_282: system.switch_cpus0 progress event, total committed:214976352, progress insts committed: 16494291, IPC: 01.64778
14997112848402: Event_282: system.switch_cpus0 progress event, total committed:231504357, progress insts committed: 16528005, IPC: 01.65115
14997112848402: Event_283: system.switch_cpus1 progress event, total committed:231291005, progress insts committed: 16464268, IPC: 01.64478
14997112848402: Event_284: system.switch_cpus2 progress event, total committed:230721719, progress insts committed: 16487181, IPC: 01.64707
14997112848402: Event_285: system.switch_cpus3 progress event, total committed:230721754, progress insts committed: 16485420, IPC: 01.64689
15000446181735: Event_285: system.switch_cpus3 progress event, total committed:247188415, progress insts committed: 16466661, IPC: 01.64502
15000446181735: Event_284: system.switch_cpus2 progress event, total committed:247191908, progress insts committed: 16470189, IPC: 01.64537
15000446181735: Event_283: system.switch_cpus1 progress event, total committed:247787824, progress insts committed: 16496819, IPC: 01.64803
15000446181735: Event_282: system.switch_cpus0 progress event, total committed:248025740, progress insts committed: 16521383, IPC: 01.65049
15003779515068: Event_282: system.switch_cpus0 progress event, total committed:264520938, progress insts committed: 16495198, IPC: 01.64787
15003779515068: Event_283: system.switch_cpus1 progress event, total committed:264289610, progress insts committed: 16501786, IPC: 01.64853
15003779515068: Event_284: system.switch_cpus2 progress event, total committed:263596778, progress insts committed: 16404870, IPC: 01.63885
15003779515068: Event_285: system.switch_cpus3 progress event, total committed:263596809, progress insts committed: 16408394, IPC: 001.6392
15007112848401: Event_285: system.switch_cpus3 progress event, total committed:279940400, progress insts committed: 16343591, IPC: 01.63272
15007112848401: Event_284: system.switch_cpus2 progress event, total committed:279940424, progress insts committed: 16343646, IPC: 01.63273
15007112848401: Event_283: system.switch_cpus1 progress event, total committed:280744801, progress insts committed: 16455191, IPC: 01.64387
15007112848401: Event_282: system.switch_cpus0 progress event, total committed:280980941, progress insts committed: 16460003, IPC: 01.64435
15010446181734: Event_282: system.switch_cpus0 progress event, total committed:297509037, progress insts committed: 16528096, IPC: 01.65116
15010446181734: Event_283: system.switch_cpus1 progress event, total committed:297273721, progress insts committed: 16528920, IPC: 01.65124
15010446181734: Event_284: system.switch_cpus2 progress event, total committed:296458421, progress insts committed: 16517997, IPC: 01.65015
15010446181734: Event_285: system.switch_cpus3 progress event, total committed:296458421, progress insts committed: 16518021, IPC: 01.65015
15013779515067: Event_285: system.switch_cpus3 progress event, total committed:312874608, progress insts committed: 16416187, IPC: 01.63998
15013779515067: Event_284: system.switch_cpus2 progress event, total committed:312874599, progress insts committed: 16416178, IPC: 01.63998
15013779515067: Event_283: system.switch_cpus1 progress event, total committed:313820561, progress insts committed: 16546840, IPC: 01.65303
15013779515067: Event_282: system.switch_cpus0 progress event, total committed:314014191, progress insts committed: 16505154, IPC: 01.64886
15017112848400: Event_282: system.switch_cpus0 progress event, total committed:330534294, progress insts committed: 16520103, IPC: 01.65036
15017112848400: Event_283: system.switch_cpus1 progress event, total committed:330344631, progress insts committed: 16524070, IPC: 01.65075
15017112848400: Event_284: system.switch_cpus2 progress event, total committed:329279073, progress insts committed: 16404474, IPC: 01.63881
15017112848400: Event_285: system.switch_cpus3 progress event, total committed:329279043, progress insts committed: 16404435, IPC: 001.6388
15020446181733: Event_285: system.switch_cpus3 progress event, total committed:345724514, progress insts committed: 16445471, IPC: 001.6429
15020446181733: Event_284: system.switch_cpus2 progress event, total committed:345724555, progress insts committed: 16445482, IPC: 001.6429
15020446181733: Event_283: system.switch_cpus1 progress event, total committed:346870763, progress insts committed: 16526132, IPC: 01.65096
15020446181733: Event_282: system.switch_cpus0 progress event, total committed:347031398, progress insts committed: 16497104, IPC: 01.64806
Exiting @ tick 15023638642347 because a thread reached the max instruction count
