
---------- Begin Simulation Statistics ----------
final_tick                               15023638642347                       # Number of ticks from beginning of simulation (restored from checkpoints and never reset)
host_inst_rate                                 151137                       # Simulator instruction rate (inst/s)
host_mem_usage                               17423528                       # Number of bytes of host memory used
host_op_rate                                   219298                       # Simulator op (including micro ops) rate (op/s)
host_seconds                                  6603.18                       # Real time elapsed on the host
host_tick_rate                               11084425                       # Simulator tick rate (ticks/s)
sim_freq                                 1000000000000                       # Frequency of simulated ticks
sim_insts                                   997984351                       # Number of instructions simulated
sim_ops                                    1448064511                       # Number of ops (including micro ops) simulated
sim_seconds                                  0.073192                       # Number of seconds simulated
sim_ticks                                 73192460607                       # Number of ticks simulated
system.cpu0.Branches                                1                       # Number of branches fetched
system.cpu0.committedInsts                         11                       # Number of instructions committed
system.cpu0.committedOps                           23                       # Number of ops (including micro ops) committed
system.cpu0.idle_fraction                           0                       # Percentage of idle cycles
system.cpu0.l2bus.snoop_filter.hit_multi_requests          287                       # Number of requests hitting in the snoop filter with multiple (>1) holders of the requested data.
system.cpu0.l2bus.snoop_filter.hit_multi_snoops            0                       # Number of snoops hitting in the snoop filter with multiple (>1) holders of the requested data.
system.cpu0.l2bus.snoop_filter.hit_single_requests       226885                       # Number of requests hitting in the snoop filter with a single holder of the requested data.
system.cpu0.l2bus.snoop_filter.hit_single_snoops          328                       # Number of snoops hitting in the snoop filter with a single holder of the requested data.
system.cpu0.l2bus.snoop_filter.tot_requests       454128                       # Total number of requests made to the snoop filter.
system.cpu0.l2bus.snoop_filter.tot_snoops          328                       # Total number of snoops made to the snoop filter.
system.cpu0.mmucache.mmubus.snoop_filter.hit_multi_requests            0                       # Number of requests hitting in the snoop filter with multiple (>1) holders of the requested data.
system.cpu0.mmucache.mmubus.snoop_filter.hit_multi_snoops            0                       # Number of snoops hitting in the snoop filter with multiple (>1) holders of the requested data.
system.cpu0.mmucache.mmubus.snoop_filter.hit_single_requests            0                       # Number of requests hitting in the snoop filter with a single holder of the requested data.
system.cpu0.mmucache.mmubus.snoop_filter.hit_single_snoops            0                       # Number of snoops hitting in the snoop filter with a single holder of the requested data.
system.cpu0.mmucache.mmubus.snoop_filter.tot_requests            0                       # Total number of requests made to the snoop filter.
system.cpu0.mmucache.mmubus.snoop_filter.tot_snoops            0                       # Total number of snoops made to the snoop filter.
system.cpu0.not_idle_fraction                       1                       # Percentage of non-idle cycles
system.cpu0.numCycles                              31                       # number of cpu cycles simulated
system.cpu0.numWorkItemsCompleted                   0                       # number of work items this cpu completed
system.cpu0.numWorkItemsStarted                     0                       # number of work items this cpu started
system.cpu0.num_busy_cycles                        31                       # Number of busy cycles
system.cpu0.num_cc_register_reads                   5                       # number of times the CC registers were read
system.cpu0.num_cc_register_writes                  4                       # number of times the CC registers were written
system.cpu0.num_conditional_control_insts            1                       # number of instructions that are conditional controls
system.cpu0.num_fp_alu_accesses                    12                       # Number of float alu accesses
system.cpu0.num_fp_insts                           12                       # number of float instructions
system.cpu0.num_fp_register_reads                   4                       # number of times the floating registers were read
system.cpu0.num_fp_register_writes                  8                       # number of times the floating registers were written
system.cpu0.num_func_calls                          0                       # number of times a function call or return occured
system.cpu0.num_idle_cycles                         0                       # Number of idle cycles
system.cpu0.num_int_alu_accesses                   23                       # Number of integer alu accesses
system.cpu0.num_int_insts                          23                       # number of integer instructions
system.cpu0.num_int_register_reads                 58                       # number of times the integer registers were read
system.cpu0.num_int_register_writes                 8                       # number of times the integer registers were written
system.cpu0.num_load_insts                         10                       # Number of load instructions
system.cpu0.num_mem_refs                           16                       # number of memory refs
system.cpu0.num_store_insts                         6                       # Number of store instructions
system.cpu0.num_vec_alu_accesses                    0                       # Number of vector alu accesses
system.cpu0.num_vec_insts                           0                       # number of vector instructions
system.cpu0.num_vec_register_reads                  0                       # number of times the vector registers were read
system.cpu0.num_vec_register_writes                 0                       # number of times the vector registers were written
system.cpu0.op_class::No_OpClass                    2      8.00%      8.00% # Class of executed instruction
system.cpu0.op_class::IntAlu                        7     28.00%     36.00% # Class of executed instruction
system.cpu0.op_class::IntMult                       0      0.00%     36.00% # Class of executed instruction
system.cpu0.op_class::IntDiv                        0      0.00%     36.00% # Class of executed instruction
system.cpu0.op_class::FloatAdd                      0      0.00%     36.00% # Class of executed instruction
system.cpu0.op_class::FloatCmp                      0      0.00%     36.00% # Class of executed instruction
system.cpu0.op_class::FloatCvt                      0      0.00%     36.00% # Class of executed instruction
system.cpu0.op_class::FloatMult                     0      0.00%     36.00% # Class of executed instruction
system.cpu0.op_class::FloatMultAcc                  0      0.00%     36.00% # Class of executed instruction
system.cpu0.op_class::FloatDiv                      0      0.00%     36.00% # Class of executed instruction
system.cpu0.op_class::FloatMisc                     0      0.00%     36.00% # Class of executed instruction
system.cpu0.op_class::FloatSqrt                     0      0.00%     36.00% # Class of executed instruction
system.cpu0.op_class::SimdAdd                       0      0.00%     36.00% # Class of executed instruction
system.cpu0.op_class::SimdAddAcc                    0      0.00%     36.00% # Class of executed instruction
system.cpu0.op_class::SimdAlu                       0      0.00%     36.00% # Class of executed instruction
system.cpu0.op_class::SimdCmp                       0      0.00%     36.00% # Class of executed instruction
system.cpu0.op_class::SimdCvt                       0      0.00%     36.00% # Class of executed instruction
system.cpu0.op_class::SimdMisc                      0      0.00%     36.00% # Class of executed instruction
system.cpu0.op_class::SimdMult                      0      0.00%     36.00% # Class of executed instruction
system.cpu0.op_class::SimdMultAcc                   0      0.00%     36.00% # Class of executed instruction
system.cpu0.op_class::SimdShift                     0      0.00%     36.00% # Class of executed instruction
system.cpu0.op_class::SimdShiftAcc                  0      0.00%     36.00% # Class of executed instruction
system.cpu0.op_class::SimdDiv                       0      0.00%     36.00% # Class of executed instruction
system.cpu0.op_class::SimdSqrt                      0      0.00%     36.00% # Class of executed instruction
system.cpu0.op_class::SimdFloatAdd                  0      0.00%     36.00% # Class of executed instruction
system.cpu0.op_class::SimdFloatAlu                  0      0.00%     36.00% # Class of executed instruction
system.cpu0.op_class::SimdFloatCmp                  0      0.00%     36.00% # Class of executed instruction
system.cpu0.op_class::SimdFloatCvt                  0      0.00%     36.00% # Class of executed instruction
system.cpu0.op_class::SimdFloatDiv                  0      0.00%     36.00% # Class of executed instruction
system.cpu0.op_class::SimdFloatMisc                 0      0.00%     36.00% # Class of executed instruction
system.cpu0.op_class::SimdFloatMult                 0      0.00%     36.00% # Class of executed instruction
system.cpu0.op_class::SimdFloatMultAcc              0      0.00%     36.00% # Class of executed instruction
system.cpu0.op_class::SimdFloatSqrt                 0      0.00%     36.00% # Class of executed instruction
system.cpu0.op_class::SimdReduceAdd                 0      0.00%     36.00% # Class of executed instruction
system.cpu0.op_class::SimdReduceAlu                 0      0.00%     36.00% # Class of executed instruction
system.cpu0.op_class::SimdReduceCmp                 0      0.00%     36.00% # Class of executed instruction
system.cpu0.op_class::SimdFloatReduceAdd            0      0.00%     36.00% # Class of executed instruction
system.cpu0.op_class::SimdFloatReduceCmp            0      0.00%     36.00% # Class of executed instruction
system.cpu0.op_class::SimdAes                       0      0.00%     36.00% # Class of executed instruction
system.cpu0.op_class::SimdAesMix                    0      0.00%     36.00% # Class of executed instruction
system.cpu0.op_class::SimdSha1Hash                  0      0.00%     36.00% # Class of executed instruction
system.cpu0.op_class::SimdSha1Hash2                 0      0.00%     36.00% # Class of executed instruction
system.cpu0.op_class::SimdSha256Hash                0      0.00%     36.00% # Class of executed instruction
system.cpu0.op_class::SimdSha256Hash2               0      0.00%     36.00% # Class of executed instruction
system.cpu0.op_class::SimdShaSigma2                 0      0.00%     36.00% # Class of executed instruction
system.cpu0.op_class::SimdShaSigma3                 0      0.00%     36.00% # Class of executed instruction
system.cpu0.op_class::SimdPredAlu                   0      0.00%     36.00% # Class of executed instruction
system.cpu0.op_class::MemRead                       2      8.00%     44.00% # Class of executed instruction
system.cpu0.op_class::MemWrite                      2      8.00%     52.00% # Class of executed instruction
system.cpu0.op_class::FloatMemRead                  8     32.00%     84.00% # Class of executed instruction
system.cpu0.op_class::FloatMemWrite                 4     16.00%    100.00% # Class of executed instruction
system.cpu0.op_class::IprAccess                     0      0.00%    100.00% # Class of executed instruction
system.cpu0.op_class::InstPrefetch                  0      0.00%    100.00% # Class of executed instruction
system.cpu0.op_class::total                        25                       # Class of executed instruction
system.cpu0.workload.numSyscalls                    0                       # Number of system calls
system.cpu1.Branches                                1                       # Number of branches fetched
system.cpu1.committedInsts                         11                       # Number of instructions committed
system.cpu1.committedOps                           23                       # Number of ops (including micro ops) committed
system.cpu1.idle_fraction                           0                       # Percentage of idle cycles
system.cpu1.l2bus.snoop_filter.hit_multi_requests          302                       # Number of requests hitting in the snoop filter with multiple (>1) holders of the requested data.
system.cpu1.l2bus.snoop_filter.hit_multi_snoops            0                       # Number of snoops hitting in the snoop filter with multiple (>1) holders of the requested data.
system.cpu1.l2bus.snoop_filter.hit_single_requests       227018                       # Number of requests hitting in the snoop filter with a single holder of the requested data.
system.cpu1.l2bus.snoop_filter.hit_single_snoops          331                       # Number of snoops hitting in the snoop filter with a single holder of the requested data.
system.cpu1.l2bus.snoop_filter.tot_requests       454293                       # Total number of requests made to the snoop filter.
system.cpu1.l2bus.snoop_filter.tot_snoops          331                       # Total number of snoops made to the snoop filter.
system.cpu1.mmucache.mmubus.snoop_filter.hit_multi_requests            0                       # Number of requests hitting in the snoop filter with multiple (>1) holders of the requested data.
system.cpu1.mmucache.mmubus.snoop_filter.hit_multi_snoops            0                       # Number of snoops hitting in the snoop filter with multiple (>1) holders of the requested data.
system.cpu1.mmucache.mmubus.snoop_filter.hit_single_requests            0                       # Number of requests hitting in the snoop filter with a single holder of the requested data.
system.cpu1.mmucache.mmubus.snoop_filter.hit_single_snoops            0                       # Number of snoops hitting in the snoop filter with a single holder of the requested data.
system.cpu1.mmucache.mmubus.snoop_filter.tot_requests            0                       # Total number of requests made to the snoop filter.
system.cpu1.mmucache.mmubus.snoop_filter.tot_snoops            0                       # Total number of snoops made to the snoop filter.
system.cpu1.not_idle_fraction                       1                       # Percentage of non-idle cycles
system.cpu1.numCycles                              31                       # number of cpu cycles simulated
system.cpu1.numWorkItemsCompleted                   0                       # number of work items this cpu completed
system.cpu1.numWorkItemsStarted                     0                       # number of work items this cpu started
system.cpu1.num_busy_cycles                        31                       # Number of busy cycles
system.cpu1.num_cc_register_reads                   5                       # number of times the CC registers were read
system.cpu1.num_cc_register_writes                  4                       # number of times the CC registers were written
system.cpu1.num_conditional_control_insts            1                       # number of instructions that are conditional controls
system.cpu1.num_fp_alu_accesses                    12                       # Number of float alu accesses
system.cpu1.num_fp_insts                           12                       # number of float instructions
system.cpu1.num_fp_register_reads                   4                       # number of times the floating registers were read
system.cpu1.num_fp_register_writes                  8                       # number of times the floating registers were written
system.cpu1.num_func_calls                          0                       # number of times a function call or return occured
system.cpu1.num_idle_cycles                         0                       # Number of idle cycles
system.cpu1.num_int_alu_accesses                   23                       # Number of integer alu accesses
system.cpu1.num_int_insts                          23                       # number of integer instructions
system.cpu1.num_int_register_reads                 58                       # number of times the integer registers were read
system.cpu1.num_int_register_writes                 8                       # number of times the integer registers were written
system.cpu1.num_load_insts                         10                       # Number of load instructions
system.cpu1.num_mem_refs                           16                       # number of memory refs
system.cpu1.num_store_insts                         6                       # Number of store instructions
system.cpu1.num_vec_alu_accesses                    0                       # Number of vector alu accesses
system.cpu1.num_vec_insts                           0                       # number of vector instructions
system.cpu1.num_vec_register_reads                  0                       # number of times the vector registers were read
system.cpu1.num_vec_register_writes                 0                       # number of times the vector registers were written
system.cpu1.op_class::No_OpClass                    2      8.00%      8.00% # Class of executed instruction
system.cpu1.op_class::IntAlu                        7     28.00%     36.00% # Class of executed instruction
system.cpu1.op_class::IntMult                       0      0.00%     36.00% # Class of executed instruction
system.cpu1.op_class::IntDiv                        0      0.00%     36.00% # Class of executed instruction
system.cpu1.op_class::FloatAdd                      0      0.00%     36.00% # Class of executed instruction
system.cpu1.op_class::FloatCmp                      0      0.00%     36.00% # Class of executed instruction
system.cpu1.op_class::FloatCvt                      0      0.00%     36.00% # Class of executed instruction
system.cpu1.op_class::FloatMult                     0      0.00%     36.00% # Class of executed instruction
system.cpu1.op_class::FloatMultAcc                  0      0.00%     36.00% # Class of executed instruction
system.cpu1.op_class::FloatDiv                      0      0.00%     36.00% # Class of executed instruction
system.cpu1.op_class::FloatMisc                     0      0.00%     36.00% # Class of executed instruction
system.cpu1.op_class::FloatSqrt                     0      0.00%     36.00% # Class of executed instruction
system.cpu1.op_class::SimdAdd                       0      0.00%     36.00% # Class of executed instruction
system.cpu1.op_class::SimdAddAcc                    0      0.00%     36.00% # Class of executed instruction
system.cpu1.op_class::SimdAlu                       0      0.00%     36.00% # Class of executed instruction
system.cpu1.op_class::SimdCmp                       0      0.00%     36.00% # Class of executed instruction
system.cpu1.op_class::SimdCvt                       0      0.00%     36.00% # Class of executed instruction
system.cpu1.op_class::SimdMisc                      0      0.00%     36.00% # Class of executed instruction
system.cpu1.op_class::SimdMult                      0      0.00%     36.00% # Class of executed instruction
system.cpu1.op_class::SimdMultAcc                   0      0.00%     36.00% # Class of executed instruction
system.cpu1.op_class::SimdShift                     0      0.00%     36.00% # Class of executed instruction
system.cpu1.op_class::SimdShiftAcc                  0      0.00%     36.00% # Class of executed instruction
system.cpu1.op_class::SimdDiv                       0      0.00%     36.00% # Class of executed instruction
system.cpu1.op_class::SimdSqrt                      0      0.00%     36.00% # Class of executed instruction
system.cpu1.op_class::SimdFloatAdd                  0      0.00%     36.00% # Class of executed instruction
system.cpu1.op_class::SimdFloatAlu                  0      0.00%     36.00% # Class of executed instruction
system.cpu1.op_class::SimdFloatCmp                  0      0.00%     36.00% # Class of executed instruction
system.cpu1.op_class::SimdFloatCvt                  0      0.00%     36.00% # Class of executed instruction
system.cpu1.op_class::SimdFloatDiv                  0      0.00%     36.00% # Class of executed instruction
system.cpu1.op_class::SimdFloatMisc                 0      0.00%     36.00% # Class of executed instruction
system.cpu1.op_class::SimdFloatMult                 0      0.00%     36.00% # Class of executed instruction
system.cpu1.op_class::SimdFloatMultAcc              0      0.00%     36.00% # Class of executed instruction
system.cpu1.op_class::SimdFloatSqrt                 0      0.00%     36.00% # Class of executed instruction
system.cpu1.op_class::SimdReduceAdd                 0      0.00%     36.00% # Class of executed instruction
system.cpu1.op_class::SimdReduceAlu                 0      0.00%     36.00% # Class of executed instruction
system.cpu1.op_class::SimdReduceCmp                 0      0.00%     36.00% # Class of executed instruction
system.cpu1.op_class::SimdFloatReduceAdd            0      0.00%     36.00% # Class of executed instruction
system.cpu1.op_class::SimdFloatReduceCmp            0      0.00%     36.00% # Class of executed instruction
system.cpu1.op_class::SimdAes                       0      0.00%     36.00% # Class of executed instruction
system.cpu1.op_class::SimdAesMix                    0      0.00%     36.00% # Class of executed instruction
system.cpu1.op_class::SimdSha1Hash                  0      0.00%     36.00% # Class of executed instruction
system.cpu1.op_class::SimdSha1Hash2                 0      0.00%     36.00% # Class of executed instruction
system.cpu1.op_class::SimdSha256Hash                0      0.00%     36.00% # Class of executed instruction
system.cpu1.op_class::SimdSha256Hash2               0      0.00%     36.00% # Class of executed instruction
system.cpu1.op_class::SimdShaSigma2                 0      0.00%     36.00% # Class of executed instruction
system.cpu1.op_class::SimdShaSigma3                 0      0.00%     36.00% # Class of executed instruction
system.cpu1.op_class::SimdPredAlu                   0      0.00%     36.00% # Class of executed instruction
system.cpu1.op_class::MemRead                       2      8.00%     44.00% # Class of executed instruction
system.cpu1.op_class::MemWrite                      2      8.00%     52.00% # Class of executed instruction
system.cpu1.op_class::FloatMemRead                  8     32.00%     84.00% # Class of executed instruction
system.cpu1.op_class::FloatMemWrite                 4     16.00%    100.00% # Class of executed instruction
system.cpu1.op_class::IprAccess                     0      0.00%    100.00% # Class of executed instruction
system.cpu1.op_class::InstPrefetch                  0      0.00%    100.00% # Class of executed instruction
system.cpu1.op_class::total                        25                       # Class of executed instruction
system.cpu1.workload.numSyscalls                    0                       # Number of system calls
system.cpu2.Branches                                1                       # Number of branches fetched
system.cpu2.committedInsts                         11                       # Number of instructions committed
system.cpu2.committedOps                           23                       # Number of ops (including micro ops) committed
system.cpu2.idle_fraction                           0                       # Percentage of idle cycles
system.cpu2.l2bus.snoop_filter.hit_multi_requests          268                       # Number of requests hitting in the snoop filter with multiple (>1) holders of the requested data.
system.cpu2.l2bus.snoop_filter.hit_multi_snoops            0                       # Number of snoops hitting in the snoop filter with multiple (>1) holders of the requested data.
system.cpu2.l2bus.snoop_filter.hit_single_requests       226419                       # Number of requests hitting in the snoop filter with a single holder of the requested data.
system.cpu2.l2bus.snoop_filter.hit_single_snoops          354                       # Number of snoops hitting in the snoop filter with a single holder of the requested data.
system.cpu2.l2bus.snoop_filter.tot_requests       453212                       # Total number of requests made to the snoop filter.
system.cpu2.l2bus.snoop_filter.tot_snoops          354                       # Total number of snoops made to the snoop filter.
system.cpu2.mmucache.mmubus.snoop_filter.hit_multi_requests            0                       # Number of requests hitting in the snoop filter with multiple (>1) holders of the requested data.
system.cpu2.mmucache.mmubus.snoop_filter.hit_multi_snoops            0                       # Number of snoops hitting in the snoop filter with multiple (>1) holders of the requested data.
system.cpu2.mmucache.mmubus.snoop_filter.hit_single_requests            0                       # Number of requests hitting in the snoop filter with a single holder of the requested data.
system.cpu2.mmucache.mmubus.snoop_filter.hit_single_snoops            0                       # Number of snoops hitting in the snoop filter with a single holder of the requested data.
system.cpu2.mmucache.mmubus.snoop_filter.tot_requests            0                       # Total number of requests made to the snoop filter.
system.cpu2.mmucache.mmubus.snoop_filter.tot_snoops            0                       # Total number of snoops made to the snoop filter.
system.cpu2.not_idle_fraction                       1                       # Percentage of non-idle cycles
system.cpu2.numCycles                              31                       # number of cpu cycles simulated
system.cpu2.numWorkItemsCompleted                   0                       # number of work items this cpu completed
system.cpu2.numWorkItemsStarted                     0                       # number of work items this cpu started
system.cpu2.num_busy_cycles                        31                       # Number of busy cycles
system.cpu2.num_cc_register_reads                   5                       # number of times the CC registers were read
system.cpu2.num_cc_register_writes                  4                       # number of times the CC registers were written
system.cpu2.num_conditional_control_insts            1                       # number of instructions that are conditional controls
system.cpu2.num_fp_alu_accesses                    12                       # Number of float alu accesses
system.cpu2.num_fp_insts                           12                       # number of float instructions
system.cpu2.num_fp_register_reads                   4                       # number of times the floating registers were read
system.cpu2.num_fp_register_writes                  8                       # number of times the floating registers were written
system.cpu2.num_func_calls                          0                       # number of times a function call or return occured
system.cpu2.num_idle_cycles                         0                       # Number of idle cycles
system.cpu2.num_int_alu_accesses                   23                       # Number of integer alu accesses
system.cpu2.num_int_insts                          23                       # number of integer instructions
system.cpu2.num_int_register_reads                 58                       # number of times the integer registers were read
system.cpu2.num_int_register_writes                 8                       # number of times the integer registers were written
system.cpu2.num_load_insts                         10                       # Number of load instructions
system.cpu2.num_mem_refs                           16                       # number of memory refs
system.cpu2.num_store_insts                         6                       # Number of store instructions
system.cpu2.num_vec_alu_accesses                    0                       # Number of vector alu accesses
system.cpu2.num_vec_insts                           0                       # number of vector instructions
system.cpu2.num_vec_register_reads                  0                       # number of times the vector registers were read
system.cpu2.num_vec_register_writes                 0                       # number of times the vector registers were written
system.cpu2.op_class::No_OpClass                    2      8.00%      8.00% # Class of executed instruction
system.cpu2.op_class::IntAlu                        7     28.00%     36.00% # Class of executed instruction
system.cpu2.op_class::IntMult                       0      0.00%     36.00% # Class of executed instruction
system.cpu2.op_class::IntDiv                        0      0.00%     36.00% # Class of executed instruction
system.cpu2.op_class::FloatAdd                      0      0.00%     36.00% # Class of executed instruction
system.cpu2.op_class::FloatCmp                      0      0.00%     36.00% # Class of executed instruction
system.cpu2.op_class::FloatCvt                      0      0.00%     36.00% # Class of executed instruction
system.cpu2.op_class::FloatMult                     0      0.00%     36.00% # Class of executed instruction
system.cpu2.op_class::FloatMultAcc                  0      0.00%     36.00% # Class of executed instruction
system.cpu2.op_class::FloatDiv                      0      0.00%     36.00% # Class of executed instruction
system.cpu2.op_class::FloatMisc                     0      0.00%     36.00% # Class of executed instruction
system.cpu2.op_class::FloatSqrt                     0      0.00%     36.00% # Class of executed instruction
system.cpu2.op_class::SimdAdd                       0      0.00%     36.00% # Class of executed instruction
system.cpu2.op_class::SimdAddAcc                    0      0.00%     36.00% # Class of executed instruction
system.cpu2.op_class::SimdAlu                       0      0.00%     36.00% # Class of executed instruction
system.cpu2.op_class::SimdCmp                       0      0.00%     36.00% # Class of executed instruction
system.cpu2.op_class::SimdCvt                       0      0.00%     36.00% # Class of executed instruction
system.cpu2.op_class::SimdMisc                      0      0.00%     36.00% # Class of executed instruction
system.cpu2.op_class::SimdMult                      0      0.00%     36.00% # Class of executed instruction
system.cpu2.op_class::SimdMultAcc                   0      0.00%     36.00% # Class of executed instruction
system.cpu2.op_class::SimdShift                     0      0.00%     36.00% # Class of executed instruction
system.cpu2.op_class::SimdShiftAcc                  0      0.00%     36.00% # Class of executed instruction
system.cpu2.op_class::SimdDiv                       0      0.00%     36.00% # Class of executed instruction
system.cpu2.op_class::SimdSqrt                      0      0.00%     36.00% # Class of executed instruction
system.cpu2.op_class::SimdFloatAdd                  0      0.00%     36.00% # Class of executed instruction
system.cpu2.op_class::SimdFloatAlu                  0      0.00%     36.00% # Class of executed instruction
system.cpu2.op_class::SimdFloatCmp                  0      0.00%     36.00% # Class of executed instruction
system.cpu2.op_class::SimdFloatCvt                  0      0.00%     36.00% # Class of executed instruction
system.cpu2.op_class::SimdFloatDiv                  0      0.00%     36.00% # Class of executed instruction
system.cpu2.op_class::SimdFloatMisc                 0      0.00%     36.00% # Class of executed instruction
system.cpu2.op_class::SimdFloatMult                 0      0.00%     36.00% # Class of executed instruction
system.cpu2.op_class::SimdFloatMultAcc              0      0.00%     36.00% # Class of executed instruction
system.cpu2.op_class::SimdFloatSqrt                 0      0.00%     36.00% # Class of executed instruction
system.cpu2.op_class::SimdReduceAdd                 0      0.00%     36.00% # Class of executed instruction
system.cpu2.op_class::SimdReduceAlu                 0      0.00%     36.00% # Class of executed instruction
system.cpu2.op_class::SimdReduceCmp                 0      0.00%     36.00% # Class of executed instruction
system.cpu2.op_class::SimdFloatReduceAdd            0      0.00%     36.00% # Class of executed instruction
system.cpu2.op_class::SimdFloatReduceCmp            0      0.00%     36.00% # Class of executed instruction
system.cpu2.op_class::SimdAes                       0      0.00%     36.00% # Class of executed instruction
system.cpu2.op_class::SimdAesMix                    0      0.00%     36.00% # Class of executed instruction
system.cpu2.op_class::SimdSha1Hash                  0      0.00%     36.00% # Class of executed instruction
system.cpu2.op_class::SimdSha1Hash2                 0      0.00%     36.00% # Class of executed instruction
system.cpu2.op_class::SimdSha256Hash                0      0.00%     36.00% # Class of executed instruction
system.cpu2.op_class::SimdSha256Hash2               0      0.00%     36.00% # Class of executed instruction
system.cpu2.op_class::SimdShaSigma2                 0      0.00%     36.00% # Class of executed instruction
system.cpu2.op_class::SimdShaSigma3                 0      0.00%     36.00% # Class of executed instruction
system.cpu2.op_class::SimdPredAlu                   0      0.00%     36.00% # Class of executed instruction
system.cpu2.op_class::MemRead                       2      8.00%     44.00% # Class of executed instruction
system.cpu2.op_class::MemWrite                      2      8.00%     52.00% # Class of executed instruction
system.cpu2.op_class::FloatMemRead                  8     32.00%     84.00% # Class of executed instruction
system.cpu2.op_class::FloatMemWrite                 4     16.00%    100.00% # Class of executed instruction
system.cpu2.op_class::IprAccess                     0      0.00%    100.00% # Class of executed instruction
system.cpu2.op_class::InstPrefetch                  0      0.00%    100.00% # Class of executed instruction
system.cpu2.op_class::total                        25                       # Class of executed instruction
system.cpu2.workload.numSyscalls                    0                       # Number of system calls
system.cpu3.Branches                                1                       # Number of branches fetched
system.cpu3.committedInsts                         11                       # Number of instructions committed
system.cpu3.committedOps                           23                       # Number of ops (including micro ops) committed
system.cpu3.idle_fraction                           0                       # Percentage of idle cycles
system.cpu3.l2bus.snoop_filter.hit_multi_requests          300                       # Number of requests hitting in the snoop filter with multiple (>1) holders of the requested data.
system.cpu3.l2bus.snoop_filter.hit_multi_snoops            0                       # Number of snoops hitting in the snoop filter with multiple (>1) holders of the requested data.
system.cpu3.l2bus.snoop_filter.hit_single_requests       226569                       # Number of requests hitting in the snoop filter with a single holder of the requested data.
system.cpu3.l2bus.snoop_filter.hit_single_snoops          270                       # Number of snoops hitting in the snoop filter with a single holder of the requested data.
system.cpu3.l2bus.snoop_filter.tot_requests       453388                       # Total number of requests made to the snoop filter.
system.cpu3.l2bus.snoop_filter.tot_snoops          270                       # Total number of snoops made to the snoop filter.
system.cpu3.mmucache.mmubus.snoop_filter.hit_multi_requests            0                       # Number of requests hitting in the snoop filter with multiple (>1) holders of the requested data.
system.cpu3.mmucache.mmubus.snoop_filter.hit_multi_snoops            0                       # Number of snoops hitting in the snoop filter with multiple (>1) holders of the requested data.
system.cpu3.mmucache.mmubus.snoop_filter.hit_single_requests            0                       # Number of requests hitting in the snoop filter with a single holder of the requested data.
system.cpu3.mmucache.mmubus.snoop_filter.hit_single_snoops            0                       # Number of snoops hitting in the snoop filter with a single holder of the requested data.
system.cpu3.mmucache.mmubus.snoop_filter.tot_requests            0                       # Total number of requests made to the snoop filter.
system.cpu3.mmucache.mmubus.snoop_filter.tot_snoops            0                       # Total number of snoops made to the snoop filter.
system.cpu3.not_idle_fraction                       1                       # Percentage of non-idle cycles
system.cpu3.numCycles                              31                       # number of cpu cycles simulated
system.cpu3.numWorkItemsCompleted                   0                       # number of work items this cpu completed
system.cpu3.numWorkItemsStarted                     0                       # number of work items this cpu started
system.cpu3.num_busy_cycles                        31                       # Number of busy cycles
system.cpu3.num_cc_register_reads                   5                       # number of times the CC registers were read
system.cpu3.num_cc_register_writes                  4                       # number of times the CC registers were written
system.cpu3.num_conditional_control_insts            1                       # number of instructions that are conditional controls
system.cpu3.num_fp_alu_accesses                    12                       # Number of float alu accesses
system.cpu3.num_fp_insts                           12                       # number of float instructions
system.cpu3.num_fp_register_reads                   4                       # number of times the floating registers were read
system.cpu3.num_fp_register_writes                  8                       # number of times the floating registers were written
system.cpu3.num_func_calls                          0                       # number of times a function call or return occured
system.cpu3.num_idle_cycles                         0                       # Number of idle cycles
system.cpu3.num_int_alu_accesses                   23                       # Number of integer alu accesses
system.cpu3.num_int_insts                          23                       # number of integer instructions
system.cpu3.num_int_register_reads                 58                       # number of times the integer registers were read
system.cpu3.num_int_register_writes                 8                       # number of times the integer registers were written
system.cpu3.num_load_insts                         10                       # Number of load instructions
system.cpu3.num_mem_refs                           16                       # number of memory refs
system.cpu3.num_store_insts                         6                       # Number of store instructions
system.cpu3.num_vec_alu_accesses                    0                       # Number of vector alu accesses
system.cpu3.num_vec_insts                           0                       # number of vector instructions
system.cpu3.num_vec_register_reads                  0                       # number of times the vector registers were read
system.cpu3.num_vec_register_writes                 0                       # number of times the vector registers were written
system.cpu3.op_class::No_OpClass                    2      8.00%      8.00% # Class of executed instruction
system.cpu3.op_class::IntAlu                        7     28.00%     36.00% # Class of executed instruction
system.cpu3.op_class::IntMult                       0      0.00%     36.00% # Class of executed instruction
system.cpu3.op_class::IntDiv                        0      0.00%     36.00% # Class of executed instruction
system.cpu3.op_class::FloatAdd                      0      0.00%     36.00% # Class of executed instruction
system.cpu3.op_class::FloatCmp                      0      0.00%     36.00% # Class of executed instruction
system.cpu3.op_class::FloatCvt                      0      0.00%     36.00% # Class of executed instruction
system.cpu3.op_class::FloatMult                     0      0.00%     36.00% # Class of executed instruction
system.cpu3.op_class::FloatMultAcc                  0      0.00%     36.00% # Class of executed instruction
system.cpu3.op_class::FloatDiv                      0      0.00%     36.00% # Class of executed instruction
system.cpu3.op_class::FloatMisc                     0      0.00%     36.00% # Class of executed instruction
system.cpu3.op_class::FloatSqrt                     0      0.00%     36.00% # Class of executed instruction
system.cpu3.op_class::SimdAdd                       0      0.00%     36.00% # Class of executed instruction
system.cpu3.op_class::SimdAddAcc                    0      0.00%     36.00% # Class of executed instruction
system.cpu3.op_class::SimdAlu                       0      0.00%     36.00% # Class of executed instruction
system.cpu3.op_class::SimdCmp                       0      0.00%     36.00% # Class of executed instruction
system.cpu3.op_class::SimdCvt                       0      0.00%     36.00% # Class of executed instruction
system.cpu3.op_class::SimdMisc                      0      0.00%     36.00% # Class of executed instruction
system.cpu3.op_class::SimdMult                      0      0.00%     36.00% # Class of executed instruction
system.cpu3.op_class::SimdMultAcc                   0      0.00%     36.00% # Class of executed instruction
system.cpu3.op_class::SimdShift                     0      0.00%     36.00% # Class of executed instruction
system.cpu3.op_class::SimdShiftAcc                  0      0.00%     36.00% # Class of executed instruction
system.cpu3.op_class::SimdDiv                       0      0.00%     36.00% # Class of executed instruction
system.cpu3.op_class::SimdSqrt                      0      0.00%     36.00% # Class of executed instruction
system.cpu3.op_class::SimdFloatAdd                  0      0.00%     36.00% # Class of executed instruction
system.cpu3.op_class::SimdFloatAlu                  0      0.00%     36.00% # Class of executed instruction
system.cpu3.op_class::SimdFloatCmp                  0      0.00%     36.00% # Class of executed instruction
system.cpu3.op_class::SimdFloatCvt                  0      0.00%     36.00% # Class of executed instruction
system.cpu3.op_class::SimdFloatDiv                  0      0.00%     36.00% # Class of executed instruction
system.cpu3.op_class::SimdFloatMisc                 0      0.00%     36.00% # Class of executed instruction
system.cpu3.op_class::SimdFloatMult                 0      0.00%     36.00% # Class of executed instruction
system.cpu3.op_class::SimdFloatMultAcc              0      0.00%     36.00% # Class of executed instruction
system.cpu3.op_class::SimdFloatSqrt                 0      0.00%     36.00% # Class of executed instruction
system.cpu3.op_class::SimdReduceAdd                 0      0.00%     36.00% # Class of executed instruction
system.cpu3.op_class::SimdReduceAlu                 0      0.00%     36.00% # Class of executed instruction
system.cpu3.op_class::SimdReduceCmp                 0      0.00%     36.00% # Class of executed instruction
system.cpu3.op_class::SimdFloatReduceAdd            0      0.00%     36.00% # Class of executed instruction
system.cpu3.op_class::SimdFloatReduceCmp            0      0.00%     36.00% # Class of executed instruction
system.cpu3.op_class::SimdAes                       0      0.00%     36.00% # Class of executed instruction
system.cpu3.op_class::SimdAesMix                    0      0.00%     36.00% # Class of executed instruction
system.cpu3.op_class::SimdSha1Hash                  0      0.00%     36.00% # Class of executed instruction
system.cpu3.op_class::SimdSha1Hash2                 0      0.00%     36.00% # Class of executed instruction
system.cpu3.op_class::SimdSha256Hash                0      0.00%     36.00% # Class of executed instruction
system.cpu3.op_class::SimdSha256Hash2               0      0.00%     36.00% # Class of executed instruction
system.cpu3.op_class::SimdShaSigma2                 0      0.00%     36.00% # Class of executed instruction
system.cpu3.op_class::SimdShaSigma3                 0      0.00%     36.00% # Class of executed instruction
system.cpu3.op_class::SimdPredAlu                   0      0.00%     36.00% # Class of executed instruction
system.cpu3.op_class::MemRead                       2      8.00%     44.00% # Class of executed instruction
system.cpu3.op_class::MemWrite                      2      8.00%     52.00% # Class of executed instruction
system.cpu3.op_class::FloatMemRead                  8     32.00%     84.00% # Class of executed instruction
system.cpu3.op_class::FloatMemWrite                 4     16.00%    100.00% # Class of executed instruction
system.cpu3.op_class::IprAccess                     0      0.00%    100.00% # Class of executed instruction
system.cpu3.op_class::InstPrefetch                  0      0.00%    100.00% # Class of executed instruction
system.cpu3.op_class::total                        25                       # Class of executed instruction
system.cpu3.workload.numSyscalls                    0                       # Number of system calls
system.l3bus.snoop_filter.hit_multi_requests            0                       # Number of requests hitting in the snoop filter with multiple (>1) holders of the requested data.
system.l3bus.snoop_filter.hit_multi_snoops            0                       # Number of snoops hitting in the snoop filter with multiple (>1) holders of the requested data.
system.l3bus.snoop_filter.hit_single_requests       423253                       # Number of requests hitting in the snoop filter with a single holder of the requested data.
system.l3bus.snoop_filter.hit_single_snoops            0                       # Number of snoops hitting in the snoop filter with a single holder of the requested data.
system.l3bus.snoop_filter.tot_requests         856797                       # Total number of requests made to the snoop filter.
system.l3bus.snoop_filter.tot_snoops                0                       # Total number of snoops made to the snoop filter.
system.membus.snoop_filter.hit_multi_requests            0                       # Number of requests hitting in the snoop filter with multiple (>1) holders of the requested data.
system.membus.snoop_filter.hit_multi_snoops            0                       # Number of snoops hitting in the snoop filter with multiple (>1) holders of the requested data.
system.membus.snoop_filter.hit_single_requests       335046                       # Number of requests hitting in the snoop filter with a single holder of the requested data.
system.membus.snoop_filter.hit_single_snoops            0                       # Number of snoops hitting in the snoop filter with a single holder of the requested data.
system.membus.snoop_filter.tot_requests        745695                       # Total number of requests made to the snoop filter.
system.membus.snoop_filter.tot_snoops               0                       # Total number of snoops made to the snoop filter.
system.switch_cpus0.cc_regfile_reads        213996815                       # number of cc regfile reads
system.switch_cpus0.cc_regfile_writes       252662128                       # number of cc regfile writes
system.switch_cpus0.committedInsts          250000001                       # Number of Instructions Simulated
system.switch_cpus0.committedOps            362744499                       # Number of Ops (including micro ops) Simulated
system.switch_cpus0.cpi                      0.879189                       # CPI: Cycles Per Instruction
system.switch_cpus0.cpi_total                0.879189                       # CPI: Total CPI of All Threads
system.switch_cpus0.fp_regfile_reads          6381690                       # number of floating regfile reads
system.switch_cpus0.fp_regfile_writes         6357013                       # number of floating regfile writes
system.switch_cpus0.idleCycles                  53074                       # Total number of cycles that the CPU has spent unscheduled due to idling
system.switch_cpus0.iew.branchMispredicts      3375408                       # Number of branch mispredicts detected at execute
system.switch_cpus0.iew.exec_branches        39345001                       # Number of branches executed
system.switch_cpus0.iew.exec_nop                    0                       # number of nop insts executed
system.switch_cpus0.iew.exec_rate            2.244843                       # Inst execution rate
system.switch_cpus0.iew.exec_refs            85800734                       # number of memory reference insts executed
system.switch_cpus0.iew.exec_stores          26454835                       # Number of stores executed
system.switch_cpus0.iew.exec_swp                    0                       # number of swp insts executed
system.switch_cpus0.iew.iewBlockCycles       41527300                       # Number of cycles IEW is blocking
system.switch_cpus0.iew.iewDispLoadInsts     69490398                       # Number of dispatched load instructions
system.switch_cpus0.iew.iewDispNonSpecInsts            0                       # Number of dispatched non-speculative instructions
system.switch_cpus0.iew.iewDispSquashedInsts         7632                       # Number of squashed instructions skipped by dispatch
system.switch_cpus0.iew.iewDispStoreInsts     37374909                       # Number of dispatched store instructions
system.switch_cpus0.iew.iewDispatchedInsts    622599058                       # Number of instructions dispatched to IQ
system.switch_cpus0.iew.iewExecLoadInsts     59345899                       # Number of load instructions executed
system.switch_cpus0.iew.iewExecSquashedInsts      6092299                       # Number of squashed instructions skipped in execute
system.switch_cpus0.iew.iewExecutedInsts    493410181                       # Number of executed instructions
system.switch_cpus0.iew.iewIQFullEvents        135790                       # Number of times the IQ has become full, causing a stall
system.switch_cpus0.iew.iewIdleCycles               0                       # Number of cycles IEW is idle
system.switch_cpus0.iew.iewLSQFullEvents       665368                       # Number of times the LSQ has become full, causing a stall
system.switch_cpus0.iew.iewSquashCycles       3297178                       # Number of cycles IEW is squashing
system.switch_cpus0.iew.iewUnblockCycles       783063                       # Number of cycles IEW is unblocking
system.switch_cpus0.iew.memOrderViolationEvents        19748                       # Number of memory order violations
system.switch_cpus0.iew.predictedNotTakenIncorrect      1331937                       # Number of branches that were predicted not taken incorrectly
system.switch_cpus0.iew.predictedTakenIncorrect      2043471                       # Number of branches that were predicted taken incorrectly
system.switch_cpus0.iew.wb_consumers        720077802                       # num instructions consuming a value
system.switch_cpus0.iew.wb_count            488647249                       # cumulative count of insts written-back
system.switch_cpus0.iew.wb_fanout            0.543065                       # average fanout of values written-back
system.switch_cpus0.iew.wb_producers        391049367                       # num instructions producing a value
system.switch_cpus0.iew.wb_rate              2.223174                       # insts written-back per cycle
system.switch_cpus0.iew.wb_sent             492880187                       # cumulative count of insts sent to commit
system.switch_cpus0.int_regfile_reads       794284716                       # number of integer regfile reads
system.switch_cpus0.int_regfile_writes      426882480                       # number of integer regfile writes
system.switch_cpus0.ipc                      1.137412                       # IPC: Instructions Per Cycle
system.switch_cpus0.ipc_total                1.137412                       # IPC: Total IPC of All Threads
system.switch_cpus0.iq.FU_type_0::No_OpClass      3143118      0.63%      0.63% # Type of FU issued
system.switch_cpus0.iq.FU_type_0::IntAlu    398576146     79.79%     80.42% # Type of FU issued
system.switch_cpus0.iq.FU_type_0::IntMult      9296016      1.86%     82.28% # Type of FU issued
system.switch_cpus0.iq.FU_type_0::IntDiv            0      0.00%     82.28% # Type of FU issued
system.switch_cpus0.iq.FU_type_0::FloatAdd            0      0.00%     82.28% # Type of FU issued
system.switch_cpus0.iq.FU_type_0::FloatCmp            0      0.00%     82.28% # Type of FU issued
system.switch_cpus0.iq.FU_type_0::FloatCvt            0      0.00%     82.28% # Type of FU issued
system.switch_cpus0.iq.FU_type_0::FloatMult            0      0.00%     82.28% # Type of FU issued
system.switch_cpus0.iq.FU_type_0::FloatMultAcc            0      0.00%     82.28% # Type of FU issued
system.switch_cpus0.iq.FU_type_0::FloatDiv            0      0.00%     82.28% # Type of FU issued
system.switch_cpus0.iq.FU_type_0::FloatMisc            0      0.00%     82.28% # Type of FU issued
system.switch_cpus0.iq.FU_type_0::FloatSqrt            0      0.00%     82.28% # Type of FU issued
system.switch_cpus0.iq.FU_type_0::SimdAdd            0      0.00%     82.28% # Type of FU issued
system.switch_cpus0.iq.FU_type_0::SimdAddAcc            0      0.00%     82.28% # Type of FU issued
system.switch_cpus0.iq.FU_type_0::SimdAlu            0      0.00%     82.28% # Type of FU issued
system.switch_cpus0.iq.FU_type_0::SimdCmp            0      0.00%     82.28% # Type of FU issued
system.switch_cpus0.iq.FU_type_0::SimdCvt            0      0.00%     82.28% # Type of FU issued
system.switch_cpus0.iq.FU_type_0::SimdMisc            0      0.00%     82.28% # Type of FU issued
system.switch_cpus0.iq.FU_type_0::SimdMult            0      0.00%     82.28% # Type of FU issued
system.switch_cpus0.iq.FU_type_0::SimdMultAcc            0      0.00%     82.28% # Type of FU issued
system.switch_cpus0.iq.FU_type_0::SimdShift            0      0.00%     82.28% # Type of FU issued
system.switch_cpus0.iq.FU_type_0::SimdShiftAcc            0      0.00%     82.28% # Type of FU issued
system.switch_cpus0.iq.FU_type_0::SimdDiv            0      0.00%     82.28% # Type of FU issued
system.switch_cpus0.iq.FU_type_0::SimdSqrt            0      0.00%     82.28% # Type of FU issued
system.switch_cpus0.iq.FU_type_0::SimdFloatAdd            0      0.00%     82.28% # Type of FU issued
system.switch_cpus0.iq.FU_type_0::SimdFloatAlu            0      0.00%     82.28% # Type of FU issued
system.switch_cpus0.iq.FU_type_0::SimdFloatCmp            0      0.00%     82.28% # Type of FU issued
system.switch_cpus0.iq.FU_type_0::SimdFloatCvt            0      0.00%     82.28% # Type of FU issued
system.switch_cpus0.iq.FU_type_0::SimdFloatDiv            0      0.00%     82.28% # Type of FU issued
system.switch_cpus0.iq.FU_type_0::SimdFloatMisc            0      0.00%     82.28% # Type of FU issued
system.switch_cpus0.iq.FU_type_0::SimdFloatMult            0      0.00%     82.28% # Type of FU issued
system.switch_cpus0.iq.FU_type_0::SimdFloatMultAcc            0      0.00%     82.28% # Type of FU issued
system.switch_cpus0.iq.FU_type_0::SimdFloatSqrt            0      0.00%     82.28% # Type of FU issued
system.switch_cpus0.iq.FU_type_0::SimdReduceAdd            0      0.00%     82.28% # Type of FU issued
system.switch_cpus0.iq.FU_type_0::SimdReduceAlu            0      0.00%     82.28% # Type of FU issued
system.switch_cpus0.iq.FU_type_0::SimdReduceCmp            0      0.00%     82.28% # Type of FU issued
system.switch_cpus0.iq.FU_type_0::SimdFloatReduceAdd            0      0.00%     82.28% # Type of FU issued
system.switch_cpus0.iq.FU_type_0::SimdFloatReduceCmp            0      0.00%     82.28% # Type of FU issued
system.switch_cpus0.iq.FU_type_0::SimdAes            0      0.00%     82.28% # Type of FU issued
system.switch_cpus0.iq.FU_type_0::SimdAesMix            0      0.00%     82.28% # Type of FU issued
system.switch_cpus0.iq.FU_type_0::SimdSha1Hash            0      0.00%     82.28% # Type of FU issued
system.switch_cpus0.iq.FU_type_0::SimdSha1Hash2            0      0.00%     82.28% # Type of FU issued
system.switch_cpus0.iq.FU_type_0::SimdSha256Hash            0      0.00%     82.28% # Type of FU issued
system.switch_cpus0.iq.FU_type_0::SimdSha256Hash2            0      0.00%     82.28% # Type of FU issued
system.switch_cpus0.iq.FU_type_0::SimdShaSigma2            0      0.00%     82.28% # Type of FU issued
system.switch_cpus0.iq.FU_type_0::SimdShaSigma3            0      0.00%     82.28% # Type of FU issued
system.switch_cpus0.iq.FU_type_0::SimdPredAlu            0      0.00%     82.28% # Type of FU issued
system.switch_cpus0.iq.FU_type_0::MemRead     54106527     10.83%     93.12% # Type of FU issued
system.switch_cpus0.iq.FU_type_0::MemWrite     21562093      4.32%     97.43% # Type of FU issued
system.switch_cpus0.iq.FU_type_0::FloatMemRead      6422958      1.29%     98.72% # Type of FU issued
system.switch_cpus0.iq.FU_type_0::FloatMemWrite      6395624      1.28%    100.00% # Type of FU issued
system.switch_cpus0.iq.FU_type_0::IprAccess            0      0.00%    100.00% # Type of FU issued
system.switch_cpus0.iq.FU_type_0::InstPrefetch            0      0.00%    100.00% # Type of FU issued
system.switch_cpus0.iq.FU_type_0::total     499502482                       # Type of FU issued
system.switch_cpus0.iq.fp_alu_accesses       15588378                       # Number of floating point alu accesses
system.switch_cpus0.iq.fp_inst_queue_reads     28412616                       # Number of floating instruction queue reads
system.switch_cpus0.iq.fp_inst_queue_wakeup_accesses     12718905                       # Number of floating instruction queue wakeup accesses
system.switch_cpus0.iq.fp_inst_queue_writes     24758956                       # Number of floating instruction queue writes
system.switch_cpus0.iq.fu_busy_cnt            7856755                       # FU busy when requested
system.switch_cpus0.iq.fu_busy_rate          0.015729                       # FU busy rate (busy events/executed inst)
system.switch_cpus0.iq.fu_full::No_OpClass            0      0.00%      0.00% # attempts to use FU when none available
system.switch_cpus0.iq.fu_full::IntAlu        3194160     40.65%     40.65% # attempts to use FU when none available
system.switch_cpus0.iq.fu_full::IntMult             0      0.00%     40.65% # attempts to use FU when none available
system.switch_cpus0.iq.fu_full::IntDiv              0      0.00%     40.65% # attempts to use FU when none available
system.switch_cpus0.iq.fu_full::FloatAdd            0      0.00%     40.65% # attempts to use FU when none available
system.switch_cpus0.iq.fu_full::FloatCmp            0      0.00%     40.65% # attempts to use FU when none available
system.switch_cpus0.iq.fu_full::FloatCvt            0      0.00%     40.65% # attempts to use FU when none available
system.switch_cpus0.iq.fu_full::FloatMult            0      0.00%     40.65% # attempts to use FU when none available
system.switch_cpus0.iq.fu_full::FloatMultAcc            0      0.00%     40.65% # attempts to use FU when none available
system.switch_cpus0.iq.fu_full::FloatDiv            0      0.00%     40.65% # attempts to use FU when none available
system.switch_cpus0.iq.fu_full::FloatMisc            0      0.00%     40.65% # attempts to use FU when none available
system.switch_cpus0.iq.fu_full::FloatSqrt            0      0.00%     40.65% # attempts to use FU when none available
system.switch_cpus0.iq.fu_full::SimdAdd             0      0.00%     40.65% # attempts to use FU when none available
system.switch_cpus0.iq.fu_full::SimdAddAcc            0      0.00%     40.65% # attempts to use FU when none available
system.switch_cpus0.iq.fu_full::SimdAlu             0      0.00%     40.65% # attempts to use FU when none available
system.switch_cpus0.iq.fu_full::SimdCmp             0      0.00%     40.65% # attempts to use FU when none available
system.switch_cpus0.iq.fu_full::SimdCvt             0      0.00%     40.65% # attempts to use FU when none available
system.switch_cpus0.iq.fu_full::SimdMisc            0      0.00%     40.65% # attempts to use FU when none available
system.switch_cpus0.iq.fu_full::SimdMult            0      0.00%     40.65% # attempts to use FU when none available
system.switch_cpus0.iq.fu_full::SimdMultAcc            0      0.00%     40.65% # attempts to use FU when none available
system.switch_cpus0.iq.fu_full::SimdShift            0      0.00%     40.65% # attempts to use FU when none available
system.switch_cpus0.iq.fu_full::SimdShiftAcc            0      0.00%     40.65% # attempts to use FU when none available
system.switch_cpus0.iq.fu_full::SimdDiv             0      0.00%     40.65% # attempts to use FU when none available
system.switch_cpus0.iq.fu_full::SimdSqrt            0      0.00%     40.65% # attempts to use FU when none available
system.switch_cpus0.iq.fu_full::SimdFloatAdd            0      0.00%     40.65% # attempts to use FU when none available
system.switch_cpus0.iq.fu_full::SimdFloatAlu            0      0.00%     40.65% # attempts to use FU when none available
system.switch_cpus0.iq.fu_full::SimdFloatCmp            0      0.00%     40.65% # attempts to use FU when none available
system.switch_cpus0.iq.fu_full::SimdFloatCvt            0      0.00%     40.65% # attempts to use FU when none available
system.switch_cpus0.iq.fu_full::SimdFloatDiv            0      0.00%     40.65% # attempts to use FU when none available
system.switch_cpus0.iq.fu_full::SimdFloatMisc            0      0.00%     40.65% # attempts to use FU when none available
system.switch_cpus0.iq.fu_full::SimdFloatMult            0      0.00%     40.65% # attempts to use FU when none available
system.switch_cpus0.iq.fu_full::SimdFloatMultAcc            0      0.00%     40.65% # attempts to use FU when none available
system.switch_cpus0.iq.fu_full::SimdFloatSqrt            0      0.00%     40.65% # attempts to use FU when none available
system.switch_cpus0.iq.fu_full::SimdReduceAdd            0      0.00%     40.65% # attempts to use FU when none available
system.switch_cpus0.iq.fu_full::SimdReduceAlu            0      0.00%     40.65% # attempts to use FU when none available
system.switch_cpus0.iq.fu_full::SimdReduceCmp            0      0.00%     40.65% # attempts to use FU when none available
system.switch_cpus0.iq.fu_full::SimdFloatReduceAdd            0      0.00%     40.65% # attempts to use FU when none available
system.switch_cpus0.iq.fu_full::SimdFloatReduceCmp            0      0.00%     40.65% # attempts to use FU when none available
system.switch_cpus0.iq.fu_full::SimdAes             0      0.00%     40.65% # attempts to use FU when none available
system.switch_cpus0.iq.fu_full::SimdAesMix            0      0.00%     40.65% # attempts to use FU when none available
system.switch_cpus0.iq.fu_full::SimdSha1Hash            0      0.00%     40.65% # attempts to use FU when none available
system.switch_cpus0.iq.fu_full::SimdSha1Hash2            0      0.00%     40.65% # attempts to use FU when none available
system.switch_cpus0.iq.fu_full::SimdSha256Hash            0      0.00%     40.65% # attempts to use FU when none available
system.switch_cpus0.iq.fu_full::SimdSha256Hash2            0      0.00%     40.65% # attempts to use FU when none available
system.switch_cpus0.iq.fu_full::SimdShaSigma2            0      0.00%     40.65% # attempts to use FU when none available
system.switch_cpus0.iq.fu_full::SimdShaSigma3            0      0.00%     40.65% # attempts to use FU when none available
system.switch_cpus0.iq.fu_full::SimdPredAlu            0      0.00%     40.65% # attempts to use FU when none available
system.switch_cpus0.iq.fu_full::MemRead        338732      4.31%     44.97% # attempts to use FU when none available
system.switch_cpus0.iq.fu_full::MemWrite      1554067     19.78%     64.75% # attempts to use FU when none available
system.switch_cpus0.iq.fu_full::FloatMemRead      1936144     24.64%     89.39% # attempts to use FU when none available
system.switch_cpus0.iq.fu_full::FloatMemWrite       833652     10.61%    100.00% # attempts to use FU when none available
system.switch_cpus0.iq.fu_full::IprAccess            0      0.00%    100.00% # attempts to use FU when none available
system.switch_cpus0.iq.fu_full::InstPrefetch            0      0.00%    100.00% # attempts to use FU when none available
system.switch_cpus0.iq.int_alu_accesses     488627741                       # Number of integer alu accesses
system.switch_cpus0.iq.int_inst_queue_reads   1198410553                       # Number of integer instruction queue reads
system.switch_cpus0.iq.int_inst_queue_wakeup_accesses    475928344                       # Number of integer instruction queue wakeup accesses
system.switch_cpus0.iq.int_inst_queue_writes    857714040                       # Number of integer instruction queue writes
system.switch_cpus0.iq.iqInstsAdded         622585932                       # Number of instructions added to the IQ (excludes non-spec)
system.switch_cpus0.iq.iqInstsIssued        499502482                       # Number of instructions issued
system.switch_cpus0.iq.iqNonSpecInstsAdded        13126                       # Number of non-speculative instructions added to the IQ
system.switch_cpus0.iq.iqSquashedInstsExamined    259854508                       # Number of squashed instructions iterated over during squash; mainly for profiling
system.switch_cpus0.iq.iqSquashedInstsIssued       217378                       # Number of squashed instructions issued
system.switch_cpus0.iq.iqSquashedNonSpecRemoved        12528                       # Number of squashed non-spec instructions that were removed
system.switch_cpus0.iq.iqSquashedOperandsExamined    409665551                       # Number of squashed operands that are examined and possibly removed from graph
system.switch_cpus0.iq.issued_per_cycle::samples    219744074                       # Number of insts issued each cycle
system.switch_cpus0.iq.issued_per_cycle::mean     2.273110                       # Number of insts issued each cycle
system.switch_cpus0.iq.issued_per_cycle::stdev     2.224773                       # Number of insts issued each cycle
system.switch_cpus0.iq.issued_per_cycle::underflows            0      0.00%      0.00% # Number of insts issued each cycle
system.switch_cpus0.iq.issued_per_cycle::0     78000791     35.50%     35.50% # Number of insts issued each cycle
system.switch_cpus0.iq.issued_per_cycle::1     21307769      9.70%     45.19% # Number of insts issued each cycle
system.switch_cpus0.iq.issued_per_cycle::2     24462594     11.13%     56.33% # Number of insts issued each cycle
system.switch_cpus0.iq.issued_per_cycle::3     29270193     13.32%     69.65% # Number of insts issued each cycle
system.switch_cpus0.iq.issued_per_cycle::4     27119919     12.34%     81.99% # Number of insts issued each cycle
system.switch_cpus0.iq.issued_per_cycle::5     17343713      7.89%     89.88% # Number of insts issued each cycle
system.switch_cpus0.iq.issued_per_cycle::6     12225042      5.56%     95.44% # Number of insts issued each cycle
system.switch_cpus0.iq.issued_per_cycle::7      7201971      3.28%     98.72% # Number of insts issued each cycle
system.switch_cpus0.iq.issued_per_cycle::8      2812082      1.28%    100.00% # Number of insts issued each cycle
system.switch_cpus0.iq.issued_per_cycle::overflows            0      0.00%    100.00% # Number of insts issued each cycle
system.switch_cpus0.iq.issued_per_cycle::min_value            0                       # Number of insts issued each cycle
system.switch_cpus0.iq.issued_per_cycle::max_value            8                       # Number of insts issued each cycle
system.switch_cpus0.iq.issued_per_cycle::total    219744074                       # Number of insts issued each cycle
system.switch_cpus0.iq.rate                  2.272561                       # Inst issue rate
system.switch_cpus0.iq.vec_alu_accesses             0                       # Number of vector alu accesses
system.switch_cpus0.iq.vec_inst_queue_reads            0                       # Number of vector instruction queue reads
system.switch_cpus0.iq.vec_inst_queue_wakeup_accesses            0                       # Number of vector instruction queue wakeup accesses
system.switch_cpus0.iq.vec_inst_queue_writes            0                       # Number of vector instruction queue writes
system.switch_cpus0.memDep0.conflictingLoads     10437835                       # Number of conflicting loads.
system.switch_cpus0.memDep0.conflictingStores       636975                       # Number of conflicting stores.
system.switch_cpus0.memDep0.insertedLoads     69490398                       # Number of loads inserted to the mem dependence unit.
system.switch_cpus0.memDep0.insertedStores     37374909                       # Number of stores inserted to the mem dependence unit.
system.switch_cpus0.misc_regfile_reads      175928248                       # number of misc regfile reads
system.switch_cpus0.misc_regfile_writes             1                       # number of misc regfile writes
system.switch_cpus0.numCycles               219797148                       # number of cpu cycles simulated
system.switch_cpus0.numWorkItemsCompleted            0                       # number of work items this cpu completed
system.switch_cpus0.numWorkItemsStarted             0                       # number of work items this cpu started
system.switch_cpus0.timesIdled                    224                       # Number of times that the entire CPU went into an idle state and unscheduled itself
system.switch_cpus1.cc_regfile_reads        213938829                       # number of cc regfile reads
system.switch_cpus1.cc_regfile_writes       252594087                       # number of cc regfile writes
system.switch_cpus1.committedInsts          249933162                       # Number of Instructions Simulated
system.switch_cpus1.committedOps            362647894                       # Number of Ops (including micro ops) Simulated
system.switch_cpus1.cpi                      0.879424                       # CPI: Cycles Per Instruction
system.switch_cpus1.cpi_total                0.879424                       # CPI: Total CPI of All Threads
system.switch_cpus1.fp_regfile_reads          6381491                       # number of floating regfile reads
system.switch_cpus1.fp_regfile_writes         6355756                       # number of floating regfile writes
system.switch_cpus1.idleCycles                  53186                       # Total number of cycles that the CPU has spent unscheduled due to idling
system.switch_cpus1.iew.branchMispredicts      3374615                       # Number of branch mispredicts detected at execute
system.switch_cpus1.iew.exec_branches        39334299                       # Number of branches executed
system.switch_cpus1.iew.exec_nop                    0                       # number of nop insts executed
system.switch_cpus1.iew.exec_rate            2.244298                       # Inst execution rate
system.switch_cpus1.iew.exec_refs            85790504                       # number of memory reference insts executed
system.switch_cpus1.iew.exec_stores          26451279                       # Number of stores executed
system.switch_cpus1.iew.exec_swp                    0                       # number of swp insts executed
system.switch_cpus1.iew.iewBlockCycles       41491108                       # Number of cycles IEW is blocking
system.switch_cpus1.iew.iewDispLoadInsts     69473556                       # Number of dispatched load instructions
system.switch_cpus1.iew.iewDispNonSpecInsts            0                       # Number of dispatched non-speculative instructions
system.switch_cpus1.iew.iewDispSquashedInsts         7677                       # Number of squashed instructions skipped by dispatch
system.switch_cpus1.iew.iewDispStoreInsts     37367198                       # Number of dispatched store instructions
system.switch_cpus1.iew.iewDispatchedInsts    622433031                       # Number of instructions dispatched to IQ
system.switch_cpus1.iew.iewExecLoadInsts     59339225                       # Number of load instructions executed
system.switch_cpus1.iew.iewExecSquashedInsts      6092258                       # Number of squashed instructions skipped in execute
system.switch_cpus1.iew.iewExecutedInsts    493290304                       # Number of executed instructions
system.switch_cpus1.iew.iewIQFullEvents        135881                       # Number of times the IQ has become full, causing a stall
system.switch_cpus1.iew.iewIdleCycles               0                       # Number of cycles IEW is idle
system.switch_cpus1.iew.iewLSQFullEvents       672701                       # Number of times the LSQ has become full, causing a stall
system.switch_cpus1.iew.iewSquashCycles       3296405                       # Number of cycles IEW is squashing
system.switch_cpus1.iew.iewUnblockCycles       790467                       # Number of cycles IEW is unblocking
system.switch_cpus1.iew.memOrderViolationEvents        19643                       # Number of memory order violations
system.switch_cpus1.iew.predictedNotTakenIncorrect      1331675                       # Number of branches that were predicted not taken incorrectly
system.switch_cpus1.iew.predictedTakenIncorrect      2042940                       # Number of branches that were predicted taken incorrectly
system.switch_cpus1.iew.wb_consumers        719886383                       # num instructions consuming a value
system.switch_cpus1.iew.wb_count            488524903                       # cumulative count of insts written-back
system.switch_cpus1.iew.wb_fanout            0.543072                       # average fanout of values written-back
system.switch_cpus1.iew.wb_producers        390950289                       # num instructions producing a value
system.switch_cpus1.iew.wb_rate              2.222617                       # insts written-back per cycle
system.switch_cpus1.iew.wb_sent             492757941                       # cumulative count of insts sent to commit
system.switch_cpus1.int_regfile_reads       794095202                       # number of integer regfile reads
system.switch_cpus1.int_regfile_writes      426773016                       # number of integer regfile writes
system.switch_cpus1.ipc                      1.137108                       # IPC: Instructions Per Cycle
system.switch_cpus1.ipc_total                1.137108                       # IPC: Total IPC of All Threads
system.switch_cpus1.iq.FU_type_0::No_OpClass      3143253      0.63%      0.63% # Type of FU issued
system.switch_cpus1.iq.FU_type_0::IntAlu    398468122     79.79%     80.42% # Type of FU issued
system.switch_cpus1.iq.FU_type_0::IntMult      9293433      1.86%     82.28% # Type of FU issued
system.switch_cpus1.iq.FU_type_0::IntDiv            0      0.00%     82.28% # Type of FU issued
system.switch_cpus1.iq.FU_type_0::FloatAdd            0      0.00%     82.28% # Type of FU issued
system.switch_cpus1.iq.FU_type_0::FloatCmp            0      0.00%     82.28% # Type of FU issued
system.switch_cpus1.iq.FU_type_0::FloatCvt            0      0.00%     82.28% # Type of FU issued
system.switch_cpus1.iq.FU_type_0::FloatMult            0      0.00%     82.28% # Type of FU issued
system.switch_cpus1.iq.FU_type_0::FloatMultAcc            0      0.00%     82.28% # Type of FU issued
system.switch_cpus1.iq.FU_type_0::FloatDiv            0      0.00%     82.28% # Type of FU issued
system.switch_cpus1.iq.FU_type_0::FloatMisc            0      0.00%     82.28% # Type of FU issued
system.switch_cpus1.iq.FU_type_0::FloatSqrt            0      0.00%     82.28% # Type of FU issued
system.switch_cpus1.iq.FU_type_0::SimdAdd            0      0.00%     82.28% # Type of FU issued
system.switch_cpus1.iq.FU_type_0::SimdAddAcc            0      0.00%     82.28% # Type of FU issued
system.switch_cpus1.iq.FU_type_0::SimdAlu            0      0.00%     82.28% # Type of FU issued
system.switch_cpus1.iq.FU_type_0::SimdCmp            0      0.00%     82.28% # Type of FU issued
system.switch_cpus1.iq.FU_type_0::SimdCvt            0      0.00%     82.28% # Type of FU issued
system.switch_cpus1.iq.FU_type_0::SimdMisc            0      0.00%     82.28% # Type of FU issued
system.switch_cpus1.iq.FU_type_0::SimdMult            0      0.00%     82.28% # Type of FU issued
system.switch_cpus1.iq.FU_type_0::SimdMultAcc            0      0.00%     82.28% # Type of FU issued
system.switch_cpus1.iq.FU_type_0::SimdShift            0      0.00%     82.28% # Type of FU issued
system.switch_cpus1.iq.FU_type_0::SimdShiftAcc            0      0.00%     82.28% # Type of FU issued
system.switch_cpus1.iq.FU_type_0::SimdDiv            0      0.00%     82.28% # Type of FU issued
system.switch_cpus1.iq.FU_type_0::SimdSqrt            0      0.00%     82.28% # Type of FU issued
system.switch_cpus1.iq.FU_type_0::SimdFloatAdd            0      0.00%     82.28% # Type of FU issued
system.switch_cpus1.iq.FU_type_0::SimdFloatAlu            0      0.00%     82.28% # Type of FU issued
system.switch_cpus1.iq.FU_type_0::SimdFloatCmp            0      0.00%     82.28% # Type of FU issued
system.switch_cpus1.iq.FU_type_0::SimdFloatCvt            0      0.00%     82.28% # Type of FU issued
system.switch_cpus1.iq.FU_type_0::SimdFloatDiv            0      0.00%     82.28% # Type of FU issued
system.switch_cpus1.iq.FU_type_0::SimdFloatMisc            0      0.00%     82.28% # Type of FU issued
system.switch_cpus1.iq.FU_type_0::SimdFloatMult            0      0.00%     82.28% # Type of FU issued
system.switch_cpus1.iq.FU_type_0::SimdFloatMultAcc            0      0.00%     82.28% # Type of FU issued
system.switch_cpus1.iq.FU_type_0::SimdFloatSqrt            0      0.00%     82.28% # Type of FU issued
system.switch_cpus1.iq.FU_type_0::SimdReduceAdd            0      0.00%     82.28% # Type of FU issued
system.switch_cpus1.iq.FU_type_0::SimdReduceAlu            0      0.00%     82.28% # Type of FU issued
system.switch_cpus1.iq.FU_type_0::SimdReduceCmp            0      0.00%     82.28% # Type of FU issued
system.switch_cpus1.iq.FU_type_0::SimdFloatReduceAdd            0      0.00%     82.28% # Type of FU issued
system.switch_cpus1.iq.FU_type_0::SimdFloatReduceCmp            0      0.00%     82.28% # Type of FU issued
[...]
system.switch_cpus3.commit.numCommittedDist::0     74210213     39.75%     39.75% # Number of insts commited each cycle
system.switch_cpus3.commit.numCommittedDist::1     43455142     23.28%     63.03% # Number of insts commited each cycle
system.switch_cpus3.commit.numCommittedDist::2      9666363      5.18%     68.21% # Number of insts commited each cycle
system.switch_cpus3.commit.numCommittedDist::3     24696786     13.23%     81.44% # Number of insts commited each cycle
system.switch_cpus3.commit.numCommittedDist::4      8325221      4.46%     85.90% # Number of insts commited each cycle
system.switch_cpus3.commit.numCommittedDist::5      4519039      2.42%     88.32% # Number of insts commited each cycle
system.switch_cpus3.commit.numCommittedDist::6      2072897      1.11%     89.43% # Number of insts commited each cycle
system.switch_cpus3.commit.numCommittedDist::7      1740817      0.93%     90.36% # Number of insts commited each cycle
system.switch_cpus3.commit.numCommittedDist::8     17992330      9.64%    100.00% # Number of insts commited each cycle
system.switch_cpus3.commit.numCommittedDist::overflows            0      0.00%    100.00% # Number of insts commited each cycle
system.switch_cpus3.commit.numCommittedDist::min_value            0                       # Number of insts commited each cycle
system.switch_cpus3.commit.numCommittedDist::max_value            8                       # Number of insts commited each cycle
system.switch_cpus3.commit.numCommittedDist::total    186678808                       # Number of insts commited each cycle
system.switch_cpus3.commit.instsCommitted    249025587                       # Number of instructions committed
system.switch_cpus3.commit.opsCommitted     361336046                       # Number of ops (including micro ops) committed
system.switch_cpus3.commit.memRefs           52786617                       # Number of memory references committed
system.switch_cpus3.commit.loads             36861266                       # Number of loads committed
system.switch_cpus3.commit.amos                     0                       # Number of atomic instructions committed
system.switch_cpus3.commit.membars                  0                       # Number of memory barriers committed
system.switch_cpus3.commit.branches          29560652                       # Number of branches committed
system.switch_cpus3.commit.vector                   0                       # Number of committed Vector instructions.
system.switch_cpus3.commit.floating           1293246                       # Number of committed floating point instructions.
system.switch_cpus3.commit.integer          361334655                       # Number of committed integer instructions.
system.switch_cpus3.commit.functionCalls        66582                       # Number of function calls committed.
system.switch_cpus3.commit.committedInstType_0::No_OpClass          664      0.00%      0.00% # Class of committed instruction
system.switch_cpus3.commit.committedInstType_0::IntAlu    299613025     82.92%     82.92% # Class of committed instruction
system.switch_cpus3.commit.committedInstType_0::IntMult      8935740      2.47%     85.39% # Class of committed instruction
system.switch_cpus3.commit.committedInstType_0::IntDiv            0      0.00%     85.39% # Class of committed instruction
system.switch_cpus3.commit.committedInstType_0::FloatAdd            0      0.00%     85.39% # Class of committed instruction
system.switch_cpus3.commit.committedInstType_0::FloatCmp            0      0.00%     85.39% # Class of committed instruction
system.switch_cpus3.commit.committedInstType_0::FloatCvt            0      0.00%     85.39% # Class of committed instruction
system.switch_cpus3.commit.committedInstType_0::FloatMult            0      0.00%     85.39% # Class of committed instruction
system.switch_cpus3.commit.committedInstType_0::FloatMultAcc            0      0.00%     85.39% # Class of committed instruction
system.switch_cpus3.commit.committedInstType_0::FloatDiv            0      0.00%     85.39% # Class of committed instruction
system.switch_cpus3.commit.committedInstType_0::FloatMisc            0      0.00%     85.39% # Class of committed instruction
system.switch_cpus3.commit.committedInstType_0::FloatSqrt            0      0.00%     85.39% # Class of committed instruction
system.switch_cpus3.commit.committedInstType_0::SimdAdd            0      0.00%     85.39% # Class of committed instruction
system.switch_cpus3.commit.committedInstType_0::SimdAddAcc            0      0.00%     85.39% # Class of committed instruction
system.switch_cpus3.commit.committedInstType_0::SimdAlu            0      0.00%     85.39% # Class of committed instruction
system.switch_cpus3.commit.committedInstType_0::SimdCmp            0      0.00%     85.39% # Class of committed instruction
system.switch_cpus3.commit.committedInstType_0::SimdCvt            0      0.00%     85.39% # Class of committed instruction
system.switch_cpus3.commit.committedInstType_0::SimdMisc            0      0.00%     85.39% # Class of committed instruction
system.switch_cpus3.commit.committedInstType_0::SimdMult            0      0.00%     85.39% # Class of committed instruction
system.switch_cpus3.commit.committedInstType_0::SimdMultAcc            0      0.00%     85.39% # Class of committed instruction
system.switch_cpus3.commit.committedInstType_0::SimdShift            0      0.00%     85.39% # Class of committed instruction
system.switch_cpus3.commit.committedInstType_0::SimdShiftAcc            0      0.00%     85.39% # Class of committed instruction
system.switch_cpus3.commit.committedInstType_0::SimdDiv            0      0.00%     85.39% # Class of committed instruction
system.switch_cpus3.commit.committedInstType_0::SimdSqrt            0      0.00%     85.39% # Class of committed instruction
system.switch_cpus3.commit.committedInstType_0::SimdFloatAdd            0      0.00%     85.39% # Class of committed instruction
system.switch_cpus3.commit.committedInstType_0::SimdFloatAlu            0      0.00%     85.39% # Class of committed instruction
system.switch_cpus3.commit.committedInstType_0::SimdFloatCmp            0      0.00%     85.39% # Class of committed instruction
system.switch_cpus3.commit.committedInstType_0::SimdFloatCvt            0      0.00%     85.39% # Class of committed instruction
system.switch_cpus3.commit.committedInstType_0::SimdFloatDiv            0      0.00%     85.39% # Class of committed instruction
system.switch_cpus3.commit.committedInstType_0::SimdFloatMisc            0      0.00%     85.39% # Class of committed instruction
system.switch_cpus3.commit.committedInstType_0::SimdFloatMult            0      0.00%     85.39% # Class of committed instruction
system.switch_cpus3.commit.committedInstType_0::SimdFloatMultAcc            0      0.00%     85.39% # Class of committed instruction
system.switch_cpus3.commit.committedInstType_0::SimdFloatSqrt            0      0.00%     85.39% # Class of committed instruction
system.switch_cpus3.commit.committedInstType_0::SimdReduceAdd            0      0.00%     85.39% # Class of committed instruction
system.switch_cpus3.commit.committedInstType_0::SimdReduceAlu            0      0.00%     85.39% # Class of committed instruction
system.switch_cpus3.commit.committedInstType_0::SimdReduceCmp            0      0.00%     85.39% # Class of committed instruction
system.switch_cpus3.commit.committedInstType_0::SimdFloatReduceAdd            0      0.00%     85.39% # Class of committed instruction
system.switch_cpus3.commit.committedInstType_0::SimdFloatReduceCmp            0      0.00%     85.39% # Class of committed instruction
system.switch_cpus3.commit.committedInstType_0::SimdAes            0      0.00%     85.39% # Class of committed instruction
system.switch_cpus3.commit.committedInstType_0::SimdAesMix            0      0.00%     85.39% # Class of committed instruction
system.switch_cpus3.commit.committedInstType_0::SimdSha1Hash            0      0.00%     85.39% # Class of committed instruction
system.switch_cpus3.commit.committedInstType_0::SimdSha1Hash2            0      0.00%     85.39% # Class of committed instruction
system.switch_cpus3.commit.committedInstType_0::SimdSha256Hash            0      0.00%     85.39% # Class of committed instruction
system.switch_cpus3.commit.committedInstType_0::SimdSha256Hash2            0      0.00%     85.39% # Class of committed instruction
system.switch_cpus3.commit.committedInstType_0::SimdShaSigma2            0      0.00%     85.39% # Class of committed instruction
system.switch_cpus3.commit.committedInstType_0::SimdShaSigma3            0      0.00%     85.39% # Class of committed instruction
system.switch_cpus3.commit.committedInstType_0::SimdPredAlu            0      0.00%     85.39% # Class of committed instruction
system.switch_cpus3.commit.committedInstType_0::MemRead     36214644     10.02%     95.41% # Class of committed instruction
system.switch_cpus3.commit.committedInstType_0::MemWrite     15278727      4.23%     99.64% # Class of committed instruction
system.switch_cpus3.commit.committedInstType_0::FloatMemRead       646622      0.18%     99.82% # Class of committed instruction
system.switch_cpus3.commit.committedInstType_0::FloatMemWrite       646624      0.18%    100.00% # Class of committed instruction
system.switch_cpus3.commit.committedInstType_0::IprAccess            0      0.00%    100.00% # Class of committed instruction
system.switch_cpus3.commit.committedInstType_0::InstPrefetch            0      0.00%    100.00% # Class of committed instruction
system.switch_cpus3.commit.committedInstType_0::total    361336046                       # Class of committed instruction
system.switch_cpus3.commit.commitEligibleSamples     17992330                       # number cycles where commit BW limit reached
system.switch_cpus3.decode.idleCycles        18775274                       # Number of cycles decode is idle
system.switch_cpus3.decode.blockedCycles    105555223                       # Number of cycles decode is blocked
system.switch_cpus3.decode.runCycles         61865751                       # Number of cycles decode is running
system.switch_cpus3.decode.unblockCycles     30264210                       # Number of cycles decode is unblocking
system.switch_cpus3.decode.squashCycles       3284358                       # Number of cycles decode is squashing
system.switch_cpus3.decode.branchResolved     36895412                       # Number of times decode resolved a  branch
system.switch_cpus3.decode.branchMispred         2062                       # Number of times decode detected a branch misprediction
system.switch_cpus3.decode.decodedInsts     666150339                       # Number of instructions handled by decode
system.switch_cpus3.decode.squashedInsts         5111                       # Number of squashed instructions handled by decode
system.switch_cpus3.dtb.rdAccesses           59162431                       # TLB accesses on read requests
system.switch_cpus3.dtb.wrAccesses           26400283                       # TLB accesses on write requests
system.switch_cpus3.dtb.rdMisses                36884                       # TLB misses on read requests
system.switch_cpus3.dtb.wrMisses                 1760                       # TLB misses on write requests
system.switch_cpus3.dtb.walker.power_state.pwrStateResidencyTicks::UNDEFINED 15023638642347                       # Cumulative time (in ticks) in various power states
system.switch_cpus3.fetch.icacheStallCycles      2976236                       # Number of cycles fetch is stalled on an Icache miss
system.switch_cpus3.fetch.insts             507805067                       # Number of instructions fetch has processed
system.switch_cpus3.fetch.branches           59273878                       # Number of branches that fetch encountered
system.switch_cpus3.fetch.predictedBranches     40989990                       # Number of branches that fetch has predicted taken
system.switch_cpus3.fetch.cycles            213481293                       # Number of cycles fetch has run and was not squashing or blocked
system.switch_cpus3.fetch.squashCycles        6572808                       # Number of cycles fetch has spent squashing
system.switch_cpus3.fetch.miscStallCycles           73                       # Number of cycles fetch has spent waiting on interrupts,or bad addresses, or out of MSHRs
system.switch_cpus3.fetch.pendingTrapStallCycles          814                       # Number of stall cycles due to pending traps
system.switch_cpus3.fetch.cacheLines         67905397                       # Number of cache lines fetched
system.switch_cpus3.fetch.icacheSquashes          259                       # Number of outstanding Icache misses that were squashed
system.switch_cpus3.fetch.nisnDist::samples    219744820                       # Number of instructions fetched each cycle (Total)
system.switch_cpus3.fetch.nisnDist::mean     3.408043                       # Number of instructions fetched each cycle (Total)
system.switch_cpus3.fetch.nisnDist::stdev     3.356589                       # Number of instructions fetched each cycle (Total)
system.switch_cpus3.fetch.nisnDist::underflows            0      0.00%      0.00% # Number of instructions fetched each cycle (Total)
system.switch_cpus3.fetch.nisnDist::0        83438774     37.97%     37.97% # Number of instructions fetched each cycle (Total)
system.switch_cpus3.fetch.nisnDist::1        12391230      5.64%     43.61% # Number of instructions fetched each cycle (Total)
system.switch_cpus3.fetch.nisnDist::2        14744763      6.71%     50.32% # Number of instructions fetched each cycle (Total)
system.switch_cpus3.fetch.nisnDist::3        11098803      5.05%     55.37% # Number of instructions fetched each cycle (Total)
system.switch_cpus3.fetch.nisnDist::4        11787761      5.36%     60.73% # Number of instructions fetched each cycle (Total)
system.switch_cpus3.fetch.nisnDist::5        14132481      6.43%     67.17% # Number of instructions fetched each cycle (Total)
system.switch_cpus3.fetch.nisnDist::6         8361172      3.80%     70.97% # Number of instructions fetched each cycle (Total)
system.switch_cpus3.fetch.nisnDist::7         4576546      2.08%     73.05% # Number of instructions fetched each cycle (Total)
system.switch_cpus3.fetch.nisnDist::8        59213290     26.95%    100.00% # Number of instructions fetched each cycle (Total)
system.switch_cpus3.fetch.nisnDist::overflows            0      0.00%    100.00% # Number of instructions fetched each cycle (Total)
system.switch_cpus3.fetch.nisnDist::min_value            0                       # Number of instructions fetched each cycle (Total)
system.switch_cpus3.fetch.nisnDist::max_value            8                       # Number of instructions fetched each cycle (Total)
system.switch_cpus3.fetch.nisnDist::total    219744820                       # Number of instructions fetched each cycle (Total)
system.switch_cpus3.fetch.branchRate         0.269675                       # Number of branch fetches per cycle
system.switch_cpus3.fetch.rate               2.310335                       # Number of inst fetches per cycle
system.switch_cpus3.itb.rdAccesses                  0                       # TLB accesses on read requests
system.switch_cpus3.itb.wrAccesses           67905511                       # TLB accesses on write requests
system.switch_cpus3.itb.rdMisses                    0                       # TLB misses on read requests
system.switch_cpus3.itb.wrMisses                  134                       # TLB misses on write requests
system.switch_cpus3.itb.walker.power_state.pwrStateResidencyTicks::UNDEFINED 15023638642347                       # Cumulative time (in ticks) in various power states
system.switch_cpus3.lsq0.forwLoads            7030575                       # Number of loads that had data forwarded from stores
system.switch_cpus3.lsq0.squashedLoads       32380685                       # Number of loads squashed
system.switch_cpus3.lsq0.ignoredResponses         7023                       # Number of memory responses ignored because the instruction is squashed
system.switch_cpus3.lsq0.memOrderViolation        19414                       # Number of memory ordering violations
system.switch_cpus3.lsq0.squashedStores      21328270                       # Number of stores squashed
system.switch_cpus3.lsq0.rescheduledLoads            5                       # Number of loads that were rescheduled
system.switch_cpus3.lsq0.blockedByCache           841                       # Number of times an access to memory failed due to the cache being blocked
system.switch_cpus3.power_state.pwrStateResidencyTicks::OFF  73192460607                       # Cumulative time (in ticks) in various power states
system.switch_cpus3.rename.squashCycles       3284358                       # Number of cycles rename is squashing
system.switch_cpus3.rename.idleCycles        30772137                       # Number of cycles rename is idle
system.switch_cpus3.rename.blockCycles       48110169                       # Number of cycles rename is blocking
system.switch_cpus3.rename.serializeStallCycles            0                       # count of cycles rename stalledfor serializing inst
system.switch_cpus3.rename.runCycles         79589909                       # Number of cycles rename is running
system.switch_cpus3.rename.unblockCycles     57988243                       # Number of cycles rename is unblocking
system.switch_cpus3.rename.renamedInsts     647630403                       # Number of instructions processed by rename
system.switch_cpus3.rename.ROBFullEvents        41104                       # Number of times rename has blocked due to ROB full
system.switch_cpus3.rename.IQFullEvents      40827217                       # Number of times rename has blocked due to IQ full
system.switch_cpus3.rename.LQFullEvents         39110                       # Number of times rename has blocked due to LQ full
system.switch_cpus3.rename.SQFullEvents      11832514                       # Number of times rename has blocked due to SQ full
system.switch_cpus3.rename.renamedOperands    928953036                       # Number of destination operands rename has renamed
system.switch_cpus3.rename.lookups         1661743143                       # Number of register rename lookups that rename has made
system.switch_cpus3.rename.intLookups      1126250927                       # Number of integer rename lookups
system.switch_cpus3.rename.fpLookups          6596461                       # Number of floating rename lookups
system.switch_cpus3.rename.committedMaps    532364382                       # Number of HB maps that are committed
system.switch_cpus3.rename.undoneMaps       396588570                       # Number of HB maps that are undone due to squashing
system.switch_cpus3.rename.serializing              0                       # count of serializing insts renamed
system.switch_cpus3.rename.tempSerializing            0                       # count of temporary serializing insts renamed
system.switch_cpus3.rename.skidInsts        123580043                       # count of insts added to the skid buffer
system.switch_cpus3.rob.reads               779016951                       # The number of ROB reads
system.switch_cpus3.rob.writes             1260613971                       # The number of ROB writes
system.switch_cpus3.thread0.numInsts        249025587                       # Number of Instructions committed
system.switch_cpus3.thread0.numOps          361336046                       # Number of Ops committed
system.switch_cpus3.thread0.numMemRefs              0                       # Number of Memory References
system.voltage_domain.voltage                       1                       # Voltage in Volts

---------- End Simulation Statistics   ----------
